*SPEF "IEEE 1481-1998"
*DESIGN "BOOTHMUL_NBIT8"
*DATE "Tue May 31 21:02:41 2022"
*VENDOR "Cadence Design Systems, Inc."
*PROGRAM "Innovus"
*VERSION "17.11-s080_1"
*DESIGN_FLOW "COUPLING C" "PIN_CAP NONE" "NAME_SCOPE LOCAL"
*DIVIDER /
*DELIMITER :
*BUS_DELIMITER []
*T_UNIT 1 NS
*C_UNIT 1 PF
*R_UNIT 1 OHM
*L_UNIT 1 HENRY

// MMMC spef file for corner 'standard'

*NAME_MAP

*1 FE_DBTN7_A_7
*2 FE_DBTN6_A_6
*3 FE_DBTN5_A_5
*4 FE_DBTN4_A_4
*5 FE_DBTN3_A_3
*6 FE_DBTN2_A_2
*7 FE_DBTN1_A_1
*8 FE_DBTN0_A_0
*9 A[7]
*10 A[6]
*11 A[5]
*12 A[4]
*13 A[3]
*14 A[2]
*15 A[1]
*16 A[0]
*17 B[7]
*18 B[6]
*19 B[5]
*20 B[4]
*21 B[3]
*22 B[2]
*23 B[1]
*24 B[0]
*25 S[15]
*26 S[14]
*27 S[13]
*28 S[12]
*29 S[11]
*30 S[10]
*31 S[9]
*32 S[8]
*33 S[7]
*34 S[6]
*35 S[5]
*36 S[4]
*37 S[3]
*38 S[2]
*39 S[1]
*40 S[0]
*41 A_n_9
*42 OTMP\[3\]\[15\]
*43 OTMP\[3\]\[14\]
*44 OTMP\[3\]\[13\]
*45 OTMP\[3\]\[12\]
*46 OTMP\[3\]\[11\]
*47 OTMP\[3\]\[10\]
*48 OTMP\[3\]\[9\]
*49 OTMP\[3\]\[8\]
*50 OTMP\[3\]\[7\]
*51 OTMP\[3\]\[6\]
*52 OTMP\[3\]\[5\]
*53 OTMP\[3\]\[4\]
*54 OTMP\[3\]\[3\]
*55 OTMP\[3\]\[2\]
*56 OTMP\[3\]\[1\]
*57 OTMP\[2\]\[13\]
*58 OTMP\[2\]\[12\]
*59 OTMP\[2\]\[11\]
*60 OTMP\[2\]\[10\]
*61 OTMP\[2\]\[9\]
*62 OTMP\[2\]\[8\]
*63 OTMP\[2\]\[7\]
*64 OTMP\[2\]\[6\]
*65 OTMP\[2\]\[5\]
*66 OTMP\[2\]\[4\]
*67 OTMP\[2\]\[3\]
*68 OTMP\[2\]\[2\]
*69 OTMP\[2\]\[1\]
*70 OTMP\[1\]\[11\]
*71 OTMP\[1\]\[10\]
*72 OTMP\[1\]\[9\]
*73 OTMP\[1\]\[8\]
*74 OTMP\[1\]\[7\]
*75 OTMP\[1\]\[6\]
*76 OTMP\[1\]\[5\]
*77 OTMP\[1\]\[4\]
*78 OTMP\[1\]\[3\]
*79 OTMP\[1\]\[2\]
*80 OTMP\[1\]\[1\]
*81 OTMP\[0\]\[10\]
*82 OTMP\[0\]\[8\]
*83 OTMP\[0\]\[7\]
*84 OTMP\[0\]\[6\]
*85 OTMP\[0\]\[5\]
*86 OTMP\[0\]\[4\]
*87 OTMP\[0\]\[3\]
*88 OTMP\[0\]\[2\]
*89 OTMP\[0\]\[1\]
*90 OTMP\[0\]\[0\]
*91 PTMP\[1\]\[13\]
*92 PTMP\[1\]\[12\]
*93 PTMP\[1\]\[11\]
*94 PTMP\[1\]\[10\]
*95 PTMP\[1\]\[9\]
*96 PTMP\[1\]\[8\]
*97 PTMP\[1\]\[7\]
*98 PTMP\[1\]\[6\]
*99 PTMP\[1\]\[5\]
*100 PTMP\[1\]\[4\]
*101 PTMP\[1\]\[3\]
*102 PTMP\[1\]\[2\]
*103 PTMP\[1\]\[1\]
*104 PTMP\[1\]\[0\]
*105 PTMP\[0\]\[12\]
*106 PTMP\[0\]\[10\]
*107 PTMP\[0\]\[9\]
*108 PTMP\[0\]\[8\]
*109 PTMP\[0\]\[7\]
*110 PTMP\[0\]\[6\]
*111 PTMP\[0\]\[5\]
*112 PTMP\[0\]\[4\]
*113 PTMP\[0\]\[3\]
*114 PTMP\[0\]\[2\]
*115 PTMP\[0\]\[1\]
*116 PTMP\[0\]\[0\]
*117 n4
*118 n5
*119 n6
*120 n7
*121 n8
*122 n9
*123 n10
*124 n11
*125 n12
*126 n13
*127 n14
*128 n15
*129 n16
*130 n17
*131 n18
*132 ENC1/n14
*133 ENC1/n15
*134 ENC1/n16
*135 ENC1/n17
*136 ENC1/n18
*137 ENC1/n19
*138 ENC1/n20
*139 ENC1/n21
*140 ENC1/n22
*141 ENC1/n23
*142 ENC1/n24
*143 ENC1/n25
*144 ENC1/n26
*145 ENC1/n3
*146 ENC1/n4
*147 ENC1/n5
*148 ENC1/n6
*149 ENC1/n7
*150 ENC1/n8
*151 ENC1/n9
*152 ENC1/n11
*153 ENC1/n12
*154 ENC1/n13
*155 ENC_1/n23
*156 ENC_1/n24
*157 ENC_1/n25
*158 ENC_1/n26
*159 ENC_1/n27
*160 ENC_1/n28
*161 ENC_1/n29
*162 ENC_1/n30
*163 ENC_1/n31
*164 ENC_1/n32
*165 ENC_1/n33
*166 ENC_1/n34
*167 ENC_1/n35
*168 ENC_1/n36
*169 ENC_1/n37
*170 ENC_1/n38
*171 ENC_1/n39
*172 ENC_1/n2
*173 ENC_1/n3
*174 ENC_1/n4
*175 ENC_1/n5
*176 ENC_1/n6
*177 ENC_1/n7
*178 ENC_1/n8
*179 ENC_1/n9
*180 ENC_1/n11
*181 ENC_1/n22
*182 ENC_2/n27
*183 ENC_2/n28
*184 ENC_2/n29
*185 ENC_2/n30
*186 ENC_2/n31
*187 ENC_2/n32
*188 ENC_2/n33
*189 ENC_2/n34
*190 ENC_2/n35
*191 ENC_2/n36
*192 ENC_2/n37
*193 ENC_2/n38
*194 ENC_2/n39
*195 ENC_2/n40
*196 ENC_2/n41
*197 ENC_2/n42
*198 ENC_2/n43
*199 ENC_2/n44
*200 ENC_2/n45
*201 ENC_2/n2
*202 ENC_2/n3
*203 ENC_2/n4
*204 ENC_2/n5
*205 ENC_2/n6
*206 ENC_2/n7
*207 ENC_2/n8
*208 ENC_2/n9
*209 ENC_2/n11
*210 ENC_2/n12
*211 ENC_2/n13
*212 ENC_2/n14
*213 ENC_2/n15
*214 ENC_2/n26
*215 ENC_3/n31
*216 ENC_3/n32
*217 ENC_3/n33
*218 ENC_3/n34
*219 ENC_3/n35
*220 ENC_3/n36
*221 ENC_3/n37
*222 ENC_3/n38
*223 ENC_3/n39
*224 ENC_3/n40
*225 ENC_3/n41
*226 ENC_3/n42
*227 ENC_3/n43
*228 ENC_3/n44
*229 ENC_3/n45
*230 ENC_3/n46
*231 ENC_3/n47
*232 ENC_3/n48
*233 ENC_3/n49
*234 ENC_3/n50
*235 ENC_3/n51
*236 ENC_3/n2
*237 ENC_3/n3
*238 ENC_3/n4
*239 ENC_3/n5
*240 ENC_3/n6
*241 ENC_3/n7
*242 ENC_3/n8
*243 ENC_3/n9
*244 ENC_3/n11
*245 ENC_3/n12
*246 ENC_3/n13
*247 ENC_3/n14
*248 ENC_3/n15
*249 ENC_3/n16
*250 ENC_3/n17
*251 ENC_3/n18
*252 ENC_3/n19
*253 ENC_3/n30
*254 ADDER1/add_95/n1
*255 ADDER1/add_95/carry[11]
*256 ADDER1/add_95/carry[10]
*257 ADDER1/add_95/carry[9]
*258 ADDER1/add_95/carry[8]
*259 ADDER1/add_95/carry[7]
*260 ADDER1/add_95/carry[6]
*261 ADDER1/add_95/carry[5]
*262 ADDER1/add_95/carry[4]
*263 ADDER1/add_95/carry[3]
*264 ADDER1/add_95/carry[2]
*265 ADDER_2/add_95/n1
*266 ADDER_2/add_95/carry[13]
*267 ADDER_2/add_95/carry[12]
*268 ADDER_2/add_95/carry[11]
*269 ADDER_2/add_95/carry[10]
*270 ADDER_2/add_95/carry[9]
*271 ADDER_2/add_95/carry[8]
*272 ADDER_2/add_95/carry[7]
*273 ADDER_2/add_95/carry[6]
*274 ADDER_2/add_95/carry[5]
*275 ADDER_2/add_95/carry[4]
*276 ADDER_2/add_95/carry[3]
*277 ADDER_2/add_95/carry[2]
*278 ADDER_3/add_95/n1
*279 ADDER_3/add_95/carry[15]
*280 ADDER_3/add_95/carry[14]
*281 ADDER_3/add_95/carry[13]
*282 ADDER_3/add_95/carry[12]
*283 ADDER_3/add_95/carry[11]
*284 ADDER_3/add_95/carry[10]
*285 ADDER_3/add_95/carry[9]
*286 ADDER_3/add_95/carry[8]
*287 ADDER_3/add_95/carry[7]
*288 ADDER_3/add_95/carry[6]
*289 ADDER_3/add_95/carry[5]
*290 ADDER_3/add_95/carry[4]
*291 ADDER_3/add_95/carry[3]
*292 ADDER_3/add_95/carry[2]
*293 FE_DBTC7_A_7
*294 FE_DBTC6_A_6
*295 FE_DBTC5_A_5
*296 FE_DBTC4_A_4
*297 FE_DBTC3_A_3
*298 FE_DBTC2_A_2
*299 FE_DBTC1_A_1
*300 FE_DBTC0_A_0
*301 ENC1/U3
*302 ENC1/U4
*303 ENC1/U6
*304 ENC1/U7
*305 ENC1/U8
*306 ENC1/U9
*307 ENC1/U10
*308 ENC1/U11
*309 ENC1/U12
*310 ENC1/U13
*311 ENC1/U14
*312 ENC1/U15
*313 ENC1/U16
*314 ENC1/U17
*315 ENC1/U18
*316 ENC1/U19
*317 ENC1/U20
*318 ENC1/U21
*319 ENC1/U22
*320 ENC1/U23
*321 ENC1/U24
*322 ENC1/U25
*323 ENC1/U26
*324 ENC1/U27
*325 ENC1/U28
*326 ENC1/U29
*327 ENC1/U30
*328 ENC1/U31
*329 ENC1/U32
*330 ENC1/U33
*331 ENC1/U34
*332 ENC1/U35
*333 ENC1/U36
*334 ENC_1/FE_RC_0_0
*335 ENC_1/U2
*336 ENC_1/U3
*337 ENC_1/U4
*338 ENC_1/U5
*339 ENC_1/U6
*340 ENC_1/U7
*341 ENC_1/U8
*342 ENC_1/U9
*343 ENC_1/U10
*344 ENC_1/U11
*345 ENC_1/U12
*346 ENC_1/U13
*347 ENC_1/U14
*348 ENC_1/U18
*349 ENC_1/U20
*350 ENC_1/U22
*351 ENC_1/U24
*352 ENC_1/U26
*353 ENC_1/U28
*354 ENC_1/U30
*355 ENC_1/U32
*356 ENC_1/U33
*357 ENC_1/U35
*358 ENC_1/U36
*359 ENC_1/U37
*360 ENC_1/U38
*361 ENC_1/U39
*362 ENC_1/U40
*363 ENC_1/U41
*364 ENC_1/U42
*365 ENC_1/U43
*366 ENC_1/U44
*367 ENC_1/U45
*368 ENC_1/U46
*369 ENC_1/U47
*370 ENC_1/U49
*371 ENC_1/U50
*372 ENC_2/FE_RC_1_0
*373 ENC_2/U2
*374 ENC_2/U3
*375 ENC_2/U6
*376 ENC_2/U9
*377 ENC_2/U11
*378 ENC_2/U12
*379 ENC_2/U14
*380 ENC_2/U15
*381 ENC_2/U17
*382 ENC_2/U18
*383 ENC_2/U20
*384 ENC_2/U21
*385 ENC_2/U23
*386 ENC_2/U24
*387 ENC_2/U26
*388 ENC_2/U27
*389 ENC_2/U29
*390 ENC_2/U30
*391 ENC_2/U31
*392 ENC_2/U32
*393 ENC_2/U33
*394 ENC_2/U34
*395 ENC_2/U35
*396 ENC_2/U36
*397 ENC_2/U37
*398 ENC_2/U38
*399 ENC_2/U40
*400 ENC_2/U41
*401 ENC_2/U42
*402 ENC_2/U43
*403 ENC_2/U44
*404 ENC_2/U45
*405 ENC_2/U46
*406 ENC_2/U47
*407 ENC_2/U48
*408 ENC_2/U49
*409 ENC_2/U50
*410 ENC_2/U51
*411 ENC_2/U52
*412 ENC_2/U53
*413 ENC_2/U54
*414 ENC_2/U55
*415 ENC_2/U56
*416 ENC_2/U57
*417 ENC_2/U58
*418 ENC_3/FE_RC_2_0
*419 ENC_3/U2
*420 ENC_3/U3
*421 ENC_3/U6
*422 ENC_3/U8
*423 ENC_3/U9
*424 ENC_3/U11
*425 ENC_3/U12
*426 ENC_3/U14
*427 ENC_3/U15
*428 ENC_3/U17
*429 ENC_3/U18
*430 ENC_3/U20
*431 ENC_3/U21
*432 ENC_3/U23
*433 ENC_3/U24
*434 ENC_3/U26
*435 ENC_3/U27
*436 ENC_3/U28
*437 ENC_3/U29
*438 ENC_3/U30
*439 ENC_3/U33
*440 ENC_3/U34
*441 ENC_3/U35
*442 ENC_3/U36
*443 ENC_3/U37
*444 ENC_3/U38
*445 ENC_3/U40
*446 ENC_3/U41
*447 ENC_3/U42
*448 ENC_3/U43
*449 ENC_3/U44
*450 ENC_3/U45
*451 ENC_3/U46
*452 ENC_3/U47
*453 ENC_3/U48
*454 ENC_3/U49
*455 ENC_3/U50
*456 ENC_3/U51
*457 ENC_3/U52
*458 ENC_3/U53
*459 ENC_3/U54
*460 ENC_3/U55
*461 ENC_3/U56
*462 ENC_3/U57
*463 ENC_3/U58
*464 ENC_3/U59
*465 ENC_3/U60
*466 ENC_3/U61
*467 ENC_3/U62
*468 ENC_3/U63
*469 ENC_3/U64
*470 ENC_3/U65
*471 ENC_3/U66
*472 ADDER1/add_95/U1_11
*473 ADDER1/add_95/U1_10
*474 ADDER1/add_95/U1_9
*475 ADDER1/add_95/U1_8
*476 ADDER1/add_95/U1_7
*477 ADDER1/add_95/U1_6
*478 ADDER1/add_95/U1_5
*479 ADDER1/add_95/U1_4
*480 ADDER1/add_95/U1_3
*481 ADDER1/add_95/U1_2
*482 ADDER1/add_95/U1_1
*483 ADDER1/add_95/U1
*484 ADDER1/add_95/U2
*485 ADDER_2/add_95/U1_13
*486 ADDER_2/add_95/U1_12
*487 ADDER_2/add_95/U1_11
*488 ADDER_2/add_95/U1_10
*489 ADDER_2/add_95/U1_9
*490 ADDER_2/add_95/U1_8
*491 ADDER_2/add_95/U1_7
*492 ADDER_2/add_95/U1_6
*493 ADDER_2/add_95/U1_5
*494 ADDER_2/add_95/U1_4
*495 ADDER_2/add_95/U1_3
*496 ADDER_2/add_95/U1_2
*497 ADDER_2/add_95/U1_1
*498 ADDER_2/add_95/U1
*499 ADDER_2/add_95/U2
*500 ADDER_3/add_95/U1_15
*501 ADDER_3/add_95/U1_14
*502 ADDER_3/add_95/U1_13
*503 ADDER_3/add_95/U1_12
*504 ADDER_3/add_95/U1_11
*505 ADDER_3/add_95/U1_10
*506 ADDER_3/add_95/U1_9
*507 ADDER_3/add_95/U1_8
*508 ADDER_3/add_95/U1_7
*509 ADDER_3/add_95/U1_6
*510 ADDER_3/add_95/U1_5
*511 ADDER_3/add_95/U1_4
*512 ADDER_3/add_95/U1_3
*513 ADDER_3/add_95/U1_2
*514 ADDER_3/add_95/U1_1
*515 ADDER_3/add_95/U1
*516 ADDER_3/add_95/U2
*517 U5
*518 U6
*519 U7
*520 U8
*521 U9
*522 U10
*523 U11
*524 U12
*525 U13
*526 U14
*527 U15
*528 U16
*529 U17
*530 U18
*531 U19
*532 U20


*PORTS

*9 I *C 36.955 35.28
*10 I *C 31.635 35.28
*11 I *C 26.315 35.28
*12 I *C 20.995 35.28
*13 I *C 15.865 35.28
*14 I *C 10.545 35.28
*15 I *C 5.225 35.28
*16 I *C 0.095 35.28
*17 I *C 0 35.07
*18 I *C 0 30.17
*19 I *C 0 25.13
*20 I *C 0 20.09
*21 I *C 0 15.05
*22 I *C 0 10.01
*23 I *C 0 4.97
*24 I *C 0 0.07
*25 O *C 37.05 0.07
*26 O *C 37.05 2.45
*27 O *C 37.05 4.83
*28 O *C 37.05 7.21
*29 O *C 37.05 9.45
*30 O *C 37.05 11.83
*31 O *C 37.05 14.21
*32 O *C 37.05 16.59
*33 O *C 37.05 18.83
*34 O *C 37.05 21.21
*35 O *C 37.05 23.59
*36 O *C 37.05 25.97
*37 O *C 37.05 28.21
*38 O *C 37.05 30.59
*39 O *C 37.05 32.97
*40 O *C 37.05 35.07


*D_NET *1 0.00190605

*CONN
*I *532:A I *C 27.355 22.85 *L 0.00223 *D XNOR2_X1
*I *524:A I *C 27.725 23.905 *L 0.00223 *D XOR2_X1
*I *517:A1 I *C 26.92 23.765 *L 0.000918 *D AND2_X1
*I *438:B2 I *C 30.08 23.765 *L 0.00161 *D OAI221_X1
*I *433:B2 I *C 30.08 26.565 *L 0.00161 *D OAI221_X1
*I *388:B2 I *C 27.04 26.565 *L 0.00161 *D OAI221_X1
*I *374:B2 I *C 27.68 25.515 *L 0.00161 *D OAI221_X1
*I *356:B1 I *C 28.37 20.965 *L 0.00166 *D OAI221_X1
*I *347:B2 I *C 27.8 18.165 *L 0.00161 *D OAI221_X1
*I *293:ZN O *C 29.49 20.29 *L 0 *D INV_X1

*CAP
1 *532:A 1.662e-05
2 *524:A 1.662e-05
3 *517:A1 3.554e-05
4 *438:B2 3.885e-05
5 *433:B2 1.662e-05
6 *388:B2 7.94e-06
7 *374:B2 1.662e-05
8 *356:B1 1.662e-05
9 *347:B2 1.662e-05
10 *293:ZN 1.662e-05
11 *1:10 0.00017548
12 *1:11 9.854e-05
13 *1:12 1.399e-05
14 *1:13 3.605e-05
15 *1:14 4.154e-05
16 *1:15 0.00015249
17 *1:16 0.00015249
18 *1:17 7.982e-05
19 *1:18 7.982e-05
20 *1:19 0.00010316
21 *1:20 6.829e-05
22 *1:21 6.094e-05
23 *1:22 0.00011443
24 *1:23 0.00011443
25 *1:24 5.084e-05
26 *1:25 5.084e-05
27 *1:26 2.619e-05
28 *1:27 2.073e-05
29 *1:28 1.52e-05
30 *1:29 4.148e-05
31 *1:30 2.418e-05
32 *1:31 2.188e-05
33 *1:32 5.873e-05
34 *1:33 3.554e-05
35 *1:34 1.625e-05
36 *1:35 1.52e-05
37 *1:36 3.885e-05

*RES
1 *1:34 *388:B2 1.03143
2 *1:22 *1:34 5
3 *1:23 *1:22 10
4 *1:15 *433:B2 5
5 *517:A1 *1:23 5
6 *1:31 *374:B2 5
7 *1:16 *1:15 10
8 *517:A1 *1:33 3.09429
9 *1:21 *532:A 5
10 *1:30 *1:31 1.5
11 *438:B2 *1:16 5
12 *1:20 *1:33 5
13 *1:21 *1:20 4
14 *1:29 *1:30 0.678571
15 *1:36 *438:B2 7.22
16 *1:20 *1:32 1
17 *1:32 *1:29 3
18 *1:35 *1:36 5
19 *1:32 *1:26 1.35714
20 *1:24 *1:35 5
21 *1:28 *293:ZN 5
22 *1:12 *356:B1 5
23 *1:27 *524:A 5
24 *1:27 *1:26 0.5
25 *1:25 *1:24 3.39286
26 *1:17 *1:28 5
27 *1:13 *1:12 0.5
28 *1:19 *1:27 0.5
29 *1:19 *1:25 5
30 *1:18 *1:17 6.10714
31 *1:10 *1:13 2.03571
32 *1:10 *1:19 10.5
33 *1:11 *1:18 5
34 *1:11 *1:10 5.5
35 *1:14 *347:B2 5
36 *1:14 *1:11 4
*END

*D_NET *2 0.00120201

*CONN
*I *530:A1 I *C 23.62 23.765 *L 0.000918 *D AND2_X1
*I *523:A I *C 21.485 23.905 *L 0.00223 *D XOR2_X1
*I *431:B2 I *C 24 28.315 *L 0.00161 *D OAI221_X1
*I *386:B2 I *C 21.15 28.315 *L 0.00161 *D OAI221_X1
*I *354:B2 I *C 23.31 22.715 *L 0.00161 *D OAI221_X1
*I *294:ZN O *C 21.13 25.89 *L 0 *D INV_X1

*CAP
1 *530:A1 1.574e-05
2 *523:A 1.662e-05
3 *431:B2 5.514e-05
4 *386:B2 1.662e-05
5 *354:B2 1.662e-05
6 *294:ZN 8.401e-05
7 *2:6 0.000132
8 *2:7 0.00017241
9 *2:8 0.00010555
10 *2:9 0.00013971
11 *2:10 6.135e-05
12 *2:11 6.135e-05
13 *2:12 4.176e-05
14 *2:13 5.181e-05
15 *2:14 3.406e-05
16 *2:15 8.401e-05
17 *2:16 6.345e-05
18 *2:17 4.98e-05

*RES
1 *2:11 *354:B2 5
2 *2:11 *2:10 4.5
3 *2:17 *2:10 5
4 *2:17 *530:A1 2.06286
5 *2:14 *2:17 3.09429
6 *2:16 *431:B2 7.22
7 *2:13 *2:14 5
8 *2:6 *2:16 5
9 *2:13 *2:7 3.5
10 *2:7 *2:6 12
11 *2:15 *2:7 5
12 *294:ZN *2:15 8.25143
13 *2:8 *386:B2 5
14 *2:9 *294:ZN 5
15 *2:9 *2:8 12
16 *2:12 *523:A 5
17 *2:12 *2:9 3
*END

*D_NET *3 0.00113184

*CONN
*I *529:A1 I *C 17.35 25.515 *L 0.000918 *D AND2_X1
*I *522:A I *C 17.275 26.705 *L 0.00223 *D XOR2_X1
*I *429:B2 I *C 18.3 28.315 *L 0.00161 *D OAI221_X1
*I *384:B1 I *C 15.64 28.315 *L 0.00166 *D OAI221_X1
*I *353:B2 I *C 18.68 23.765 *L 0.00161 *D OAI221_X1
*I *295:ZN O *C 16.76 23.39 *L 0 *D INV_X1

*CAP
1 *529:A1 3.301e-05
2 *522:A 1.662e-05
3 *429:B2 4.934e-05
4 *384:B1 1.662e-05
5 *353:B2 3.43e-05
6 *295:ZN 1.662e-05
7 *3:6 4.136e-05
8 *3:7 3.727e-05
9 *3:8 1.399e-05
10 *3:9 5.765e-05
11 *3:10 4.261e-05
12 *3:11 7.554e-05
13 *3:12 5.344e-05
14 *3:13 8.558e-05
15 *3:14 8.941e-05
16 *3:15 3.992e-05
17 *3:16 5.946e-05
18 *3:17 5.946e-05
19 *3:18 1.629e-05
20 *3:19 0.00011685
21 *3:20 0.00011685
22 *3:21 1.332e-05
23 *3:22 1.332e-05
24 *3:23 3.301e-05

*RES
1 *3:21 *384:B1 5
2 *3:22 *3:21 0.5
3 *3:20 *3:22 5
4 *3:9 *429:B2 6.18857
5 *3:20 *3:19 5.42857
6 *3:8 *3:9 5
7 *3:17 *295:ZN 5
8 *3:6 *3:19 5
9 *3:6 *3:8 0.5
10 *3:17 *3:16 3.5
11 *3:7 *3:6 4
12 *3:23 *3:16 5
13 *3:7 *3:18 0.678571
14 *3:10 *353:B2 4.12571
15 *3:23 *529:A1 3.09429
16 *3:13 *522:A 5
17 *3:13 *3:18 0.5
18 *3:12 *3:10 5
19 *3:14 *529:A1 5
20 *3:14 *3:13 5
21 *3:12 *3:11 4.5
22 *3:15 *3:14 1
23 *3:15 *3:11 2.03571
*END

*D_NET *4 0.00107546

*CONN
*I *528:A1 I *C 14.31 26.565 *L 0.000918 *D AND2_X1
*I *521:A I *C 10.085 28.175 *L 0.00223 *D XOR2_X1
*I *427:B2 I *C 12.41 28.315 *L 0.00161 *D OAI221_X1
*I *382:B2 I *C 11.08 26.565 *L 0.00161 *D OAI221_X1
*I *352:B2 I *C 12.86 23.765 *L 0.00161 *D OAI221_X1
*I *296:ZN O *C 13.34 25.89 *L 0 *D INV_X1

*CAP
1 *528:A1 7.4e-06
2 *521:A 1.662e-05
3 *427:B2 5.02e-05
4 *382:B2 1.662e-05
5 *352:B2 1.478e-05
6 *296:ZN 3.324e-05
7 *4:6 8.082e-05
8 *4:7 9.716e-05
9 *4:8 1.236e-05
10 *4:9 2.452e-05
11 *4:10 9.204e-05
12 *4:11 4.184e-05
13 *4:12 1.714e-05
14 *4:13 1.714e-05
15 *4:14 3.344e-05
16 *4:15 3.724e-05
17 *4:16 3.848e-05
18 *4:17 0.00013519
19 *4:18 0.00010431
20 *4:19 3.239e-05
21 *4:20 3.469e-05
22 *4:21 2.502e-05
23 *4:22 2.272e-05
24 *4:23 2.309e-05
25 *4:24 1.571e-05
26 *4:25 2.736e-05
27 *4:26 2.394e-05

*RES
1 *4:25 *521:A 5
2 *4:25 *4:9 1.35714
3 *4:9 *4:8 0.5
4 *4:11 *4:8 5
5 *4:11 *4:10 4.12571
6 *4:10 *427:B2 7.22
7 *4:6 *4:10 5
8 *4:24 *528:A1 1.03143
9 *4:7 *382:B2 5
10 *4:7 *4:6 5.5
11 *4:12 *4:24 5
12 *4:26 *4:7 1
13 *4:13 *4:12 1
14 *352:B2 *4:23 2.06286
15 *4:18 *4:26 5
16 *4:16 *4:13 5
17 *4:22 *4:23 5
18 *4:18 *4:17 8.14286
19 *4:17 *4:16 2.71429
20 *4:22 *4:21 1.5
21 *4:14 *4:17 5
22 *4:21 *4:20 0.678571
23 *4:15 *4:14 2.5
24 *4:20 *4:19 2
25 *296:ZN *4:15 5
26 *296:ZN *4:19 5
*END

*D_NET *5 0.00127956

*CONN
*I *527:A1 I *C 7.85 26.565 *L 0.000918 *D AND2_X1
*I *520:A I *C 7.995 25.375 *L 0.00223 *D XOR2_X1
*I *425:B1 I *C 6.97 28.315 *L 0.00166 *D OAI221_X1
*I *380:B2 I *C 9.56 25.515 *L 0.00161 *D OAI221_X1
*I *351:B2 I *C 12.6 22.715 *L 0.00161 *D OAI221_X1
*I *297:ZN O *C 10.3 20.59 *L 0 *D INV_X1

*CAP
1 *527:A1 1.662e-05
2 *520:A 1.662e-05
3 *425:B1 1.606e-05
4 *380:B2 1.662e-05
5 *351:B2 1.621e-05
6 *297:ZN 1.662e-05
7 *5:6 5.675e-05
8 *5:7 0.00011763
9 *5:8 7.384e-05
10 *5:9 1.296e-05
11 *5:10 5.29e-05
12 *5:11 5.29e-05
13 *5:12 2.452e-05
14 *5:13 6.15e-05
15 *5:14 5.731e-05
16 *5:15 1.179e-05
17 *5:16 4.523e-05
18 *5:17 4.491e-05
19 *5:18 4.578e-05
20 *5:19 7.038e-05
21 *5:20 3.188e-05
22 *5:21 1.52e-05
23 *5:22 1.52e-05
24 *5:23 0.00014624
25 *5:24 0.00014624
26 *5:25 4.495e-05
27 *5:26 5.27e-05

*RES
1 *5:26 *425:B1 1.52
2 *5:26 *5:25 5.15714
3 *5:6 *5:25 5
4 *5:9 *520:A 5
5 *5:7 *527:A1 5
6 *5:7 *5:6 4.5
7 *5:9 *5:8 0.5
8 *5:8 *5:7 4.5
9 *5:14 *5:8 5
10 *5:22 *380:B2 5
11 *5:14 *5:13 6.10714
12 *5:13 *5:22 5
13 *5:13 *5:15 0.392857
14 *5:24 *5:15 5
15 *5:12 *351:B2 2.06286
16 *5:23 *5:24 4.41
17 *5:11 *297:ZN 5
18 *5:21 *5:12 5
19 *5:20 *5:23 5
20 *5:11 *5:10 3
21 *5:16 *5:21 5
22 *5:20 *5:19 2.32143
23 *5:19 *5:10 5
24 *5:17 *5:16 3.39286
25 *5:19 *5:18 3.39286
26 *5:18 *5:17 0.5
*END

*D_NET *6 0.00093394

*CONN
*I *526:A1 I *C 7.47 18.165 *L 0.000918 *D AND2_X1
*I *519:A I *C 7.045 18.305 *L 0.00223 *D XOR2_X1
*I *423:B2 I *C 7.16 20.965 *L 0.00161 *D OAI221_X1
*I *378:B2 I *C 10.13 18.165 *L 0.00161 *D OAI221_X1
*I *350:B2 I *C 12.22 17.115 *L 0.00161 *D OAI221_X1
*I *298:ZN O *C 9.35 17.49 *L 0 *D INV_X1

*CAP
1 *526:A1 7.4e-06
2 *519:A 1.662e-05
3 *423:B2 1.662e-05
4 *378:B2 2.687e-05
5 *350:B2 0.00012219
6 *298:ZN 0.00013881
7 *6:6 2.237e-05
8 *6:7 1.972e-05
9 *6:8 3.518e-05
10 *6:9 2.012e-05
11 *6:10 2.242e-05
12 *6:11 3.637e-05
13 *6:12 2.733e-05
14 *6:13 2.498e-05
15 *6:14 2.268e-05
16 *6:15 1.483e-05
17 *6:16 1.571e-05
18 *6:17 1.434e-05
19 *6:18 6.243e-05
20 *6:19 6.243e-05
21 *6:20 2.093e-05
22 *6:21 3.87e-05
23 *6:22 2.385e-05
24 *6:23 6.052e-05
25 *6:24 6.052e-05

*RES
1 *6:6 *423:B2 5
2 *6:7 *6:6 1.5
3 *6:7 *6:24 0.339286
4 *6:14 *519:A 5
5 *6:23 *6:24 7
6 *6:13 *6:14 1
7 *6:22 *6:23 0.339286
8 *6:16 *526:A1 1.03143
9 *6:13 *6:21 0.678571
10 *6:21 *6:22 2
11 *6:15 *6:16 5
12 *6:21 *6:20 0.678571
13 *6:20 *6:15 0.5
14 *6:8 *378:B2 3.09429
15 *6:19 *6:20 5
16 *6:9 *6:8 5
17 *6:19 *6:18 7.46429
18 *6:10 *6:9 1
19 *6:17 *6:18 5
20 *6:11 *6:10 0.678571
21 *6:11 *6:17 0.5
22 *6:12 *6:11 2.5
23 *298:ZN *6:12 5
24 *298:ZN *350:B2 15.4714
*END

*D_NET *7 0.00084827

*CONN
*I *525:A1 I *C 7.73 14.315 *L 0.000918 *D AND2_X1
*I *518:A I *C 8.945 14.175 *L 0.00223 *D XOR2_X1
*I *421:B2 I *C 7.16 15.365 *L 0.00161 *D OAI221_X1
*I *376:B2 I *C 10.51 12.565 *L 0.00161 *D OAI221_X1
*I *349:B2 I *C 12.41 12.565 *L 0.00161 *D OAI221_X1
*I *299:ZN O *C 10.11 14.69 *L 0 *D INV_X1

*CAP
1 *525:A1 1.662e-05
2 *518:A 1.662e-05
3 *421:B2 4.113e-05
4 *376:B2 1.607e-05
5 *349:B2 1.478e-05
6 *299:ZN 1.662e-05
7 *7:6 1.577e-05
8 *7:7 2.797e-05
9 *7:8 2.054e-05
10 *7:9 2.054e-05
11 *7:10 3.578e-05
12 *7:11 3.27e-05
13 *7:12 5.544e-05
14 *7:13 5.544e-05
15 *7:14 2.438e-05
16 *7:15 0.00010835
17 *7:16 5.524e-05
18 *7:17 1.672e-05
19 *7:18 5.456e-05
20 *7:19 5.456e-05
21 *7:20 1.52e-05
22 *7:21 2.309e-05
23 *7:22 6.071e-05
24 *7:23 4.944e-05

*RES
1 *421:B2 *7:23 5.15714
2 *7:6 *7:23 5
3 *7:9 *525:A1 5
4 *7:7 *7:6 1
5 *7:9 *7:8 1
6 *7:17 *518:A 5
7 *7:7 *7:10 1.35714
8 *7:16 *7:8 5
9 *7:17 *7:11 1
10 *7:11 *7:10 2.5
11 *7:21 *349:B2 2.06286
12 *7:16 *7:15 2.71429
13 *7:15 *7:11 5
14 *7:20 *7:21 5
15 *7:15 *7:22 6.10714
16 *7:19 *7:20 5
17 *7:12 *7:22 5
18 *7:12 *299:ZN 5
19 *7:18 *7:19 6.78571
20 *7:13 *7:12 6.5
21 *7:13 *7:18 5
22 *7:14 *7:13 5
23 *7:14 *376:B2 2.06286
*END

*D_NET *8 0.00244841

*CONN
*I *525:A2 I *C 7.54 14.315 *L 0.000975 *D AND2_X1
*I *518:B I *C 8.815 13.965 *L 0.00241 *D XOR2_X1
*I *420:C2 I *C 6.59 12.565 *L 0.00158 *D OAI221_X1
*I *420:B2 I *C 7.16 12.565 *L 0.00161 *D OAI221_X1
*I *375:C2 I *C 11.84 9.765 *L 0.00158 *D OAI221_X1
*I *375:B2 I *C 11.27 9.765 *L 0.00161 *D OAI221_X1
*I *348:C2 I *C 18.68 14.315 *L 0.00158 *D OAI221_X1
*I *348:B2 I *C 18.11 14.315 *L 0.00161 *D OAI221_X1
*I *331:B2 I *C 22.29 15.365 *L 0.00157 *D OAI21_X1
*I *311:B2 I *C 20.84 15.365 *L 0.00161 *D OAI221_X1
*I *300:ZN O *C 10.11 9.39 *L 0 *D INV_X1

*CAP
1 *525:A2 1.662e-05
2 *518:B 1.662e-05
3 *420:C2 1.662e-05
4 *420:B2 1.662e-05
5 *375:C2 1.662e-05
6 *375:B2 5.623e-05
7 *348:C2 1.662e-05
8 *348:B2 1.662e-05
9 *331:B2 4.206e-05
10 *311:B2 5.037e-05
11 *300:ZN 5.782e-05
12 *8:11 1.741e-05
13 *8:12 2.957e-05
14 *8:13 7.211e-05
15 *8:14 6.679e-05
16 *8:15 7.74e-05
17 *8:16 8.006e-05
18 *8:17 1.271e-05
19 *8:18 4.638e-05
20 *8:19 1.917e-05
21 *8:20 5.326e-05
22 *8:21 5.326e-05
23 *8:22 3.444e-05
24 *8:23 3.444e-05
25 *8:24 7.959e-05
26 *8:25 0.00011541
27 *8:26 4.342e-05
28 *8:27 4.829e-05
29 *8:28 1.62e-05
30 *8:29 5.439e-05
31 *8:30 2.562e-05
32 *8:31 0.00022135
33 *8:32 0.00022103
34 *8:33 1.698e-05
35 *8:34 3.902e-05
36 *8:35 4.063e-05
37 *8:36 1.859e-05
38 *8:37 1.444e-05
39 *8:38 1.296e-05
40 *8:39 1.296e-05
41 *8:40 1.52e-05
42 *8:41 1.821e-05
43 *8:42 3.889e-05
44 *8:43 3.889e-05
45 *8:44 6.957e-05
46 *8:45 6.957e-05
47 *8:46 3.371e-05
48 *8:47 8.573e-05
49 *8:48 8.541e-05
50 *8:49 3.747e-05
51 *8:50 3.747e-05
52 *8:51 1.759e-05

*RES
1 *311:B2 *331:B2 8.25143
2 *8:20 *311:B2 5
3 *8:21 *8:20 3
4 *8:45 *8:21 5
5 *8:39 *420:C2 5
6 *8:44 *8:45 7.46429
7 *8:38 *8:39 0.5
8 *8:19 *348:C2 5
9 *8:17 *8:44 5
10 *8:23 *8:38 5
11 *8:28 *348:B2 5
12 *8:19 *8:18 1
13 *8:18 *8:17 0.5
14 *8:23 *8:22 2.03571
15 *8:28 *8:27 1
16 *8:27 *8:18 2.03571
17 *8:37 *8:22 5
18 *8:27 *8:51 1.5
19 *8:37 *8:14 0.5
20 *8:14 *420:B2 5
21 *8:31 *8:51 5
22 *8:14 *8:13 4.5
23 *8:32 *8:31 19
24 *8:13 *8:12 1.35714
25 *8:32 *8:50 0.5
26 *8:11 *525:A2 5
27 *8:12 *8:11 1
28 *8:49 *8:50 4.75
29 *8:40 *518:B 5
30 *8:26 *8:11 5
31 *8:48 *8:49 0.5
32 *8:25 *8:40 5
33 *8:26 *8:25 2.71429
34 *8:47 *8:48 4.07143
35 *8:25 *8:24 7.46429
36 *8:46 *8:47 5
37 *8:29 *8:24 5
38 *8:29 *8:46 2.5
39 *8:30 *8:29 1.5
40 *8:30 *8:43 0.339286
41 *8:42 *8:43 5
42 *8:36 *375:C2 5
43 *8:15 *8:42 0.339286
44 *8:35 *8:36 1
45 *8:16 *8:15 7
46 *8:34 *8:35 2.03571
47 *8:41 *8:16 5
48 *8:34 *8:33 1
49 *300:ZN *8:41 1.03143
50 *375:B2 *8:33 5
51 *300:ZN *375:B2 6.18857
*END

*D_NET *9 0.00419646

*CONN
*P *9 I *C 36.955 35.28 *L 0
*I *453:A1 I *C 30.975 20.86 *L 0.00169 *D AOI22_X1
*I *452:A1 I *C 30.785 22.82 *L 0.00169 *D AOI22_X1
*I *451:A1 I *C 25.085 26.46 *L 0.00169 *D AOI22_X1
*I *407:A1 I *C 25.455 22.82 *L 0.00169 *D AOI22_X1
*I *406:A1 I *C 25.265 23.66 *L 0.00169 *D AOI22_X1
*I *405:A1 I *C 23.375 25.62 *L 0.00169 *D AOI22_X1
*I *368:A1 I *C 30.975 18.06 *L 0.00169 *D AOI22_X1
*I *367:A1 I *C 29.265 17.22 *L 0.00169 *D AOI22_X1
*I *366:A1 I *C 23.375 20.02 *L 0.00169 *D AOI22_X1
*I *330:A1 I *C 23.365 17.115 *L 0.0016 *D NAND2_X1
*I *329:A1 I *C 22.045 17.115 *L 0.0016 *D NAND2_X1
*I *315:A1 I *C 25.285 18.165 *L 0.00164 *D AOI222_X1
*I *293:A I *C 29.32 19.915 *L 0.0017 *D INV_X1

*CAP
1 *9 1.662e-05
2 *453:A1 1.662e-05
3 *452:A1 1.662e-05
4 *451:A1 1.662e-05
5 *407:A1 1.662e-05
6 *406:A1 1.662e-05
7 *405:A1 1.662e-05
8 *368:A1 1.662e-05
9 *367:A1 1.662e-05
10 *366:A1 1.662e-05
11 *330:A1 5.315e-05
12 *329:A1 4.484e-05
13 *315:A1 7.89e-06
14 *293:A 1.662e-05
15 *9:14 3.195e-05
16 *9:15 5.363e-05
17 *9:16 0.00026556
18 *9:17 0.00020401
19 *9:18 3.158e-05
20 *9:19 2.563e-05
21 *9:20 2.563e-05
22 *9:21 7.815e-05
23 *9:22 8.043e-05
24 *9:23 0.00011438
25 *9:24 0.00012002
26 *9:25 1.825e-05
27 *9:26 3.622e-05
28 *9:27 3.392e-05
29 *9:28 0.00013643
30 *9:29 2.536e-05
31 *9:30 1.664e-05
32 *9:31 9.606e-05
33 *9:32 7.378e-05
34 *9:33 8.164e-05
35 *9:34 8.164e-05
36 *9:35 4.734e-05
37 *9:36 0.00013255
38 *9:37 0.00013263
39 *9:38 5.104e-05
40 *9:39 3.631e-05
41 *9:40 1.62e-05
42 *9:41 3.735e-05
43 *9:42 5.208e-05
44 *9:43 3.166e-05
45 *9:44 3.862e-05
46 *9:45 3.692e-05
47 *9:46 0.00043549
48 *9:47 0.00043169
49 *9:48 0.00020426
50 *9:49 0.00020426
51 *9:50 1.489e-05
52 *9:51 0.00010659
53 *9:52 7.078e-05
54 *9:53 7.078e-05
55 *9:54 0.00012541

*RES
1 *9:46 *9 5
2 *9:47 *9:46 44.625
3 *9:48 *9:47 5
4 *9:49 *9:48 21.7143
5 *9:21 *452:A1 5
6 *9:21 *9:49 5
7 *9:22 *9:21 6
8 *9:22 *9:50 0.678571
9 *9:25 *368:A1 5
10 *9:23 *453:A1 5
11 *9:23 *9:50 0.5
12 *9:25 *9:24 1
13 *9:24 *9:23 9
14 *9:33 *9:24 5
15 *9:27 *407:A1 5
16 *9:41 *293:A 5
17 *9:34 *9:33 6.10714
18 *9:27 *9:26 2
19 *9:54 *451:A1 5
20 *9:39 *367:A1 5
21 *9:42 *9:41 5
22 *9:42 *9:34 5
23 *9:30 *9:26 0.678571
24 *9:28 *406:A1 5
25 *9:28 *9:54 10
26 *9:39 *9:38 3
27 *9:38 *9:42 1.5
28 *9:30 *9:29 0.5
29 *9:29 *9:28 1
30 *9:43 *9:38 5
31 *9:53 *9:29 5
32 *9:44 *9:43 1.35714
33 *9:51 *405:A1 5
34 *9:52 *9:53 6.10714
35 *9:40 *315:A1 1.03143
36 *9:36 *9:44 1
37 *9:16 *9:51 7.5
38 *9:16 *9:52 5
39 *9:19 *9:40 5
40 *9:37 *9:36 12.8929
41 *9:17 *366:A1 5
42 *9:17 *9:16 12.5
43 *9:20 *9:19 1
44 *9:37 *9:45 1
45 *9:35 *9:17 3.5
46 *9:31 *9:20 5
47 *9:31 *9:45 1.35714
48 *9:14 *9:35 0.678571
49 *9:32 *9:31 6.10714
50 *9:15 *9:14 3.5
51 *9:15 *9:32 5
52 *9:18 *9:15 3.5
53 *330:A1 *9:18 5
54 *329:A1 *330:A1 6.18857
*END

*D_NET *10 0.00267193

*CONN
*P *10 I *C 31.635 35.28 *L 0
*I *450:A1 I *C 20.525 26.46 *L 0.00169 *D AOI22_X1
*I *404:A1 I *C 19.375 25.62 *L 0.00169 *D AOI22_X1
*I *365:A1 I *C 20.715 22.82 *L 0.00169 *D AOI22_X1
*I *328:A1 I *C 19.195 19.915 *L 0.0016 *D NAND2_X1
*I *294:A I *C 20.96 25.515 *L 0.0017 *D INV_X1

*CAP
1 *10 1.004e-05
2 *450:A1 1.662e-05
3 *404:A1 1.662e-05
4 *365:A1 1.662e-05
5 *328:A1 7.17e-06
6 *294:A 1.434e-05
7 *10:6 0.00015638
8 *10:7 0.00011794
9 *10:8 6.659e-05
10 *10:9 5.885e-05
11 *10:10 4.834e-05
12 *10:11 6.498e-05
13 *10:12 6.499e-05
14 *10:13 2.198e-05
15 *10:14 2.693e-05
16 *10:15 1.492e-05
17 *10:16 4.08e-05
18 *10:17 5.263e-05
19 *10:18 2.445e-05
20 *10:19 4.585e-05
21 *10:20 4.585e-05
22 *10:21 1.548e-05
23 *10:22 1.319e-05
24 *10:23 1.319e-05
25 *10:24 2.265e-05
26 *10:25 0.00016665
27 *10:26 3.587e-05
28 *10:27 2.812e-05
29 *10:28 4.002e-05
30 *10:29 4.23e-05
31 *10:30 5.631e-05
32 *10:31 5.137e-05
33 *10:32 6.616e-05
34 *10:33 6.616e-05
35 *10:34 1.764e-05
36 *10:35 0.00010728
37 *10:36 0.00010555
38 *10:37 0.00016604
39 *10:38 0.00016604
40 *10:39 2.856e-05
41 *10:40 2.828e-05
42 *10:41 0.00010182
43 *10:42 0.00010182
44 *10:43 6.193e-05
45 *10:44 6.996e-05
46 *10:45 0.00016665

*RES
1 *10:35 *10 0.95
2 *10:36 *10:35 14.44
3 *10:37 *10:36 5
4 *10:38 *10:37 16.5
5 *10:39 *10:38 5
6 *10:40 *10:39 2.06286
7 *10:40 *10:41 0.76
8 *10:42 *10:41 12.3771
9 *10:43 *10:42 0.76
10 *10:44 *10:43 6.18857
11 *10:44 *10:45 1.52
12 *10:25 *10:45 21.66
13 *10:26 *10:25 1.52
14 *10:27 *10:26 2.06286
15 *10:28 *10:27 5
16 *10:29 *10:28 2.5
17 *10:29 *10:30 0.678571
18 *10:31 *10:30 4
19 *10:11 *10:31 0.339286
20 *10:12 *10:11 5.5
21 *10:13 *10:12 0.339286
22 *10:14 *10:13 1.5
23 *10:24 *294:A 2.06286
24 *10:15 *10:14 0.678571
25 *10:18 *10:24 5
26 *10:16 *450:A1 5
27 *10:16 *10:15 0.5
28 *10:18 *10:17 1.5
29 *10:17 *10:16 2.5
30 *10:32 *10:17 5
31 *10:33 *10:32 4.75
32 *10:23 *365:A1 5
33 *10:34 *10:33 5
34 *10:22 *10:23 0.5
35 *10:8 *404:A1 5
36 *10:8 *10:34 1
37 *10:19 *10:22 5
38 *10:9 *10:8 4.5
39 *10:20 *10:19 4.75
40 *10:9 *10:10 0.678571
41 *328:A1 *10:21 1.03143
42 *10:6 *10:20 5
43 *10:6 *10:10 6
44 *10:7 *10:21 5
45 *10:7 *10:6 10
*END

*D_NET *11 0.00244903

*CONN
*P *11 I *C 26.315 35.28 *L 0
*I *449:A1 I *C 16.155 25.62 *L 0.00169 *D AOI22_X1
*I *403:A1 I *C 14.435 25.62 *L 0.00169 *D AOI22_X1
*I *364:A1 I *C 15.395 23.66 *L 0.00169 *D AOI22_X1
*I *327:A1 I *C 16.715 20.965 *L 0.0016 *D NAND2_X1
*I *295:A I *C 16.59 23.765 *L 0.0017 *D INV_X1

*CAP
1 *11 2.609e-05
2 *449:A1 1.662e-05
3 *403:A1 1.662e-05
4 *364:A1 1.662e-05
5 *327:A1 3.222e-05
6 *295:A 3.312e-05
7 *11:6 6.34e-05
8 *11:7 6.34e-05
9 *11:8 2.991e-05
10 *11:9 2.761e-05
11 *11:10 7.318e-05
12 *11:11 7.319e-05
13 *11:12 3.088e-05
14 *11:13 2.842e-05
15 *11:14 7.406e-05
16 *11:15 2.843e-05
17 *11:16 2.843e-05
18 *11:17 4.053e-05
19 *11:18 2.741e-05
20 *11:19 1.521e-05
21 *11:20 3.295e-05
22 *11:21 5.358e-05
23 *11:22 5.834e-05
24 *11:23 4.143e-05
25 *11:24 0.0002036
26 *11:25 0.0001773
27 *11:26 0.0001773
28 *11:27 3.807e-05
29 *11:28 3.032e-05
30 *11:29 1.748e-05
31 *11:30 0.00019552
32 *11:31 0.00019058
33 *11:32 7.04e-05
34 *11:33 9.071e-05
35 *11:34 3.841e-05
36 *11:35 7.406e-05
37 *11:36 0.00021363

*RES
1 *11:36 *11 2.47
2 *11:24 *11:36 27.8486
3 *11:25 *11:24 1.52
4 *11:17 *327:A1 4.12571
5 *11:26 *11:25 23.7229
6 *11:9 *11:17 5
7 *11:26 *11:27 1.52
8 *11:9 *11:8 1.5
9 *11:28 *11:27 2.06286
10 *11:8 *11:7 0.678571
11 *11:29 *11:28 5
12 *11:7 *11:6 7
13 *11:30 *11:29 0.678571
14 *11:13 *11:6 0.678571
15 *11:23 *295:A 4.12571
16 *11:19 *364:A1 5
17 *11:31 *11:30 21
18 *11:13 *11:12 1.5
19 *11:12 *11:23 5
20 *11:19 *11:18 1
21 *11:31 *11:10 0.339286
22 *11:12 *11:22 0.5
23 *11:18 *11:22 1.35714
24 *11:11 *11:10 6
25 *11:22 *11:21 3
26 *11:32 *11:11 0.339286
27 *11:21 *11:20 1.35714
28 *11:33 *449:A1 5
29 *11:33 *11:32 6
30 *11:20 *11:34 1
31 *11:34 *11:33 1.5
32 *11:16 *403:A1 5
33 *11:35 *11:34 5
34 *11:15 *11:16 1.5
35 *11:14 *11:35 6.78571
36 *11:14 *11:15 5
*END

*D_NET *12 0.00233383

*CONN
*P *12 I *C 20.995 35.28 *L 0
*I *448:A1 I *C 8.925 25.62 *L 0.00169 *D AOI22_X1
*I *402:A1 I *C 11.785 25.62 *L 0.00169 *D AOI22_X1
*I *363:A1 I *C 14.825 22.82 *L 0.00169 *D AOI22_X1
*I *326:A1 I *C 16.335 22.715 *L 0.0016 *D NAND2_X1
*I *296:A I *C 13.17 25.515 *L 0.0017 *D INV_X1

*CAP
1 *12 1.807e-05
2 *448:A1 1.662e-05
3 *402:A1 1.662e-05
4 *363:A1 1.662e-05
5 *326:A1 2.84e-05
6 *296:A 4.861e-05
7 *12:6 2.544e-05
8 *12:7 1.324e-05
9 *12:8 2.22e-05
10 *12:9 3.59e-05
11 *12:10 3.671e-05
12 *12:11 6.182e-05
13 *12:12 4.072e-05
14 *12:13 0.00026963
15 *12:14 0.00025987
16 *12:15 4.224e-05
17 *12:16 2.623e-05
18 *12:17 6.932e-05
19 *12:18 6.932e-05
20 *12:19 0.00010506
21 *12:20 0.00010506
22 *12:21 1.958e-05
23 *12:22 1.99e-05
24 *12:23 1.52e-05
25 *12:24 2.988e-05
26 *12:25 1.59e-05
27 *12:26 2.81e-05
28 *12:27 2.472e-05
29 *12:28 1.252e-05
30 *12:29 5.692e-05
31 *12:30 4.32e-05
32 *12:31 0.00018888
33 *12:32 0.00019116
34 *12:33 8.548e-05
35 *12:34 9.54e-05
36 *12:35 1.933e-05
37 *12:36 6.7e-05
38 *12:37 6.702e-05
39 *12:38 2.594e-05

*RES
1 *12:10 *326:A1 5.15714
2 *12:7 *12:10 5
3 *12:13 *12 1.71
4 *12:7 *12:6 0.5
5 *12:14 *12:13 34.0371
6 *12:9 *363:A1 5
7 *12:9 *12:6 1.35714