*SPEF "IEEE 1481-1998"
*DESIGN "P4_ADDER_NBIT32"
*DATE "Tue May 31 13:07:00 2022"
*VENDOR "Cadence Design Systems, Inc."
*PROGRAM "Innovus"
*VERSION "17.11-s080_1"
*DESIGN_FLOW "COUPLING C" "PIN_CAP NONE" "NAME_SCOPE LOCAL"
*DIVIDER /
*DELIMITER :
*BUS_DELIMITER []
*T_UNIT 1 NS
*C_UNIT 1 PF
*R_UNIT 1 OHM
*L_UNIT 1 HENRY

// MMMC spef file for corner 'standard'

*NAME_MAP

*1 A[31]
*2 A[30]
*3 A[29]
*4 A[28]
*5 A[27]
*6 A[26]
*7 A[25]
*8 A[24]
*9 A[23]
*10 A[22]
*11 A[21]
*12 A[20]
*13 A[19]
*14 A[18]
*15 A[17]
*16 A[16]
*17 A[15]
*18 A[14]
*19 A[13]
*20 A[12]
*21 A[11]
*22 A[10]
*23 A[9]
*24 A[8]
*25 A[7]
*26 A[6]
*27 A[5]
*28 A[4]
*29 A[3]
*30 A[2]
*31 A[1]
*32 A[0]
*33 B[31]
*34 B[30]
*35 B[29]
*36 B[28]
*37 B[27]
*38 B[26]
*39 B[25]
*40 B[24]
*41 B[23]
*42 B[22]
*43 B[21]
*44 B[20]
*45 B[19]
*46 B[18]
*47 B[17]
*48 B[16]
*49 B[15]
*50 B[14]
*51 B[13]
*52 B[12]
*53 B[11]
*54 B[10]
*55 B[9]
*56 B[8]
*57 B[7]
*58 B[6]
*59 B[5]
*60 B[4]
*61 B[3]
*62 B[2]
*63 B[1]
*64 B[0]
*65 S[31]
*66 S[30]
*67 S[29]
*68 S[28]
*69 S[27]
*70 S[26]
*71 S[25]
*72 S[24]
*73 S[23]
*74 S[22]
*75 S[21]
*76 S[20]
*77 S[19]
*78 S[18]
*79 S[17]
*80 S[16]
*81 S[15]
*82 S[14]
*83 S[13]
*84 S[12]
*85 S[11]
*86 S[10]
*87 S[9]
*88 S[8]
*89 S[7]
*90 S[6]
*91 S[5]
*92 S[4]
*93 S[3]
*94 S[2]
*95 S[1]
*96 S[0]
*97 Cin
*98 Cout
*99 carry_gen_Co[6]
*100 carry_gen_Co[5]
*101 carry_gen_Co[4]
*102 carry_gen_Co[3]
*103 carry_gen_Co[2]
*104 carry_gen_Co[1]
*105 carry_gen_Co[0]
*106 U_CARRY_GENERATOR/p_0
*107 U_CARRY_GENERATOR/g_0
*108 U_CARRY_GENERATOR/CG_xbars\[4\]\[31\]\[1\]
*109 U_CARRY_GENERATOR/CG_xbars\[4\]\[31\]\[0\]
*110 U_CARRY_GENERATOR/CG_xbars\[4\]\[27\]\[1\]
*111 U_CARRY_GENERATOR/CG_xbars\[4\]\[27\]\[0\]
*112 U_CARRY_GENERATOR/CG_xbars\[3\]\[31\]\[1\]
*113 U_CARRY_GENERATOR/CG_xbars\[3\]\[31\]\[0\]
*114 U_CARRY_GENERATOR/CG_xbars\[3\]\[23\]\[1\]
*115 U_CARRY_GENERATOR/CG_xbars\[3\]\[23\]\[0\]
*116 U_CARRY_GENERATOR/CG_xbars\[3\]\[15\]\[1\]
*117 U_CARRY_GENERATOR/CG_xbars\[3\]\[15\]\[0\]
*118 U_CARRY_GENERATOR/CG_xbars\[2\]\[31\]\[1\]
*119 U_CARRY_GENERATOR/CG_xbars\[2\]\[31\]\[0\]
*120 U_CARRY_GENERATOR/CG_xbars\[2\]\[27\]\[1\]
*121 U_CARRY_GENERATOR/CG_xbars\[2\]\[27\]\[0\]
*122 U_CARRY_GENERATOR/CG_xbars\[2\]\[23\]\[1\]
*123 U_CARRY_GENERATOR/CG_xbars\[2\]\[23\]\[0\]
*124 U_CARRY_GENERATOR/CG_xbars\[2\]\[19\]\[1\]
*125 U_CARRY_GENERATOR/CG_xbars\[2\]\[19\]\[0\]
*126 U_CARRY_GENERATOR/CG_xbars\[2\]\[15\]\[1\]
*127 U_CARRY_GENERATOR/CG_xbars\[2\]\[15\]\[0\]
*128 U_CARRY_GENERATOR/CG_xbars\[2\]\[11\]\[1\]
*129 U_CARRY_GENERATOR/CG_xbars\[2\]\[11\]\[0\]
*130 U_CARRY_GENERATOR/CG_xbars\[2\]\[7\]\[1\]
*131 U_CARRY_GENERATOR/CG_xbars\[2\]\[7\]\[0\]
*132 U_CARRY_GENERATOR/CG_xbars\[1\]\[31\]\[1\]
*133 U_CARRY_GENERATOR/CG_xbars\[1\]\[31\]\[0\]
*134 U_CARRY_GENERATOR/CG_xbars\[1\]\[29\]\[1\]
*135 U_CARRY_GENERATOR/CG_xbars\[1\]\[29\]\[0\]
*136 U_CARRY_GENERATOR/CG_xbars\[1\]\[27\]\[1\]
*137 U_CARRY_GENERATOR/CG_xbars\[1\]\[27\]\[0\]
*138 U_CARRY_GENERATOR/CG_xbars\[1\]\[25\]\[1\]
*139 U_CARRY_GENERATOR/CG_xbars\[1\]\[25\]\[0\]
*140 U_CARRY_GENERATOR/CG_xbars\[1\]\[23\]\[1\]
*141 U_CARRY_GENERATOR/CG_xbars\[1\]\[23\]\[0\]
*142 U_CARRY_GENERATOR/CG_xbars\[1\]\[21\]\[1\]
*143 U_CARRY_GENERATOR/CG_xbars\[1\]\[21\]\[0\]
*144 U_CARRY_GENERATOR/CG_xbars\[1\]\[19\]\[1\]
*145 U_CARRY_GENERATOR/CG_xbars\[1\]\[19\]\[0\]
*146 U_CARRY_GENERATOR/CG_xbars\[1\]\[17\]\[1\]
*147 U_CARRY_GENERATOR/CG_xbars\[1\]\[17\]\[0\]
*148 U_CARRY_GENERATOR/CG_xbars\[1\]\[15\]\[1\]
*149 U_CARRY_GENERATOR/CG_xbars\[1\]\[15\]\[0\]
*150 U_CARRY_GENERATOR/CG_xbars\[1\]\[13\]\[1\]
*151 U_CARRY_GENERATOR/CG_xbars\[1\]\[13\]\[0\]
*152 U_CARRY_GENERATOR/CG_xbars\[1\]\[11\]\[1\]
*153 U_CARRY_GENERATOR/CG_xbars\[1\]\[11\]\[0\]
*154 U_CARRY_GENERATOR/CG_xbars\[1\]\[9\]\[1\]
*155 U_CARRY_GENERATOR/CG_xbars\[1\]\[9\]\[0\]
*156 U_CARRY_GENERATOR/CG_xbars\[1\]\[7\]\[1\]
*157 U_CARRY_GENERATOR/CG_xbars\[1\]\[7\]\[0\]
*158 U_CARRY_GENERATOR/CG_xbars\[1\]\[5\]\[1\]
*159 U_CARRY_GENERATOR/CG_xbars\[1\]\[5\]\[0\]
*160 U_CARRY_GENERATOR/CG_xbars\[1\]\[3\]\[1\]
*161 U_CARRY_GENERATOR/CG_xbars\[1\]\[3\]\[0\]
*162 U_CARRY_GENERATOR/CG_xbars\[1\]\[1\]\[0\]
*163 U_CARRY_GENERATOR/CG_xbars\[0\]\[31\]\[1\]
*164 U_CARRY_GENERATOR/CG_xbars\[0\]\[31\]\[0\]
*165 U_CARRY_GENERATOR/CG_xbars\[0\]\[30\]\[1\]
*166 U_CARRY_GENERATOR/CG_xbars\[0\]\[30\]\[0\]
*167 U_CARRY_GENERATOR/CG_xbars\[0\]\[29\]\[1\]
*168 U_CARRY_GENERATOR/CG_xbars\[0\]\[29\]\[0\]
*169 U_CARRY_GENERATOR/CG_xbars\[0\]\[28\]\[1\]
*170 U_CARRY_GENERATOR/CG_xbars\[0\]\[28\]\[0\]
*171 U_CARRY_GENERATOR/CG_xbars\[0\]\[27\]\[1\]
*172 U_CARRY_GENERATOR/CG_xbars\[0\]\[27\]\[0\]
*173 U_CARRY_GENERATOR/CG_xbars\[0\]\[26\]\[1\]
*174 U_CARRY_GENERATOR/CG_xbars\[0\]\[26\]\[0\]
*175 U_CARRY_GENERATOR/CG_xbars\[0\]\[25\]\[1\]
*176 U_CARRY_GENERATOR/CG_xbars\[0\]\[25\]\[0\]
*177 U_CARRY_GENERATOR/CG_xbars\[0\]\[24\]\[1\]
*178 U_CARRY_GENERATOR/CG_xbars\[0\]\[24\]\[0\]
*179 U_CARRY_GENERATOR/CG_xbars\[0\]\[23\]\[1\]
*180 U_CARRY_GENERATOR/CG_xbars\[0\]\[23\]\[0\]
*181 U_CARRY_GENERATOR/CG_xbars\[0\]\[22\]\[1\]
*182 U_CARRY_GENERATOR/CG_xbars\[0\]\[22\]\[0\]
*183 U_CARRY_GENERATOR/CG_xbars\[0\]\[21\]\[1\]
*184 U_CARRY_GENERATOR/CG_xbars\[0\]\[21\]\[0\]
*185 U_CARRY_GENERATOR/CG_xbars\[0\]\[20\]\[1\]
*186 U_CARRY_GENERATOR/CG_xbars\[0\]\[20\]\[0\]
*187 U_CARRY_GENERATOR/CG_xbars\[0\]\[19\]\[1\]
*188 U_CARRY_GENERATOR/CG_xbars\[0\]\[19\]\[0\]
*189 U_CARRY_GENERATOR/CG_xbars\[0\]\[18\]\[1\]
*190 U_CARRY_GENERATOR/CG_xbars\[0\]\[18\]\[0\]
*191 U_CARRY_GENERATOR/CG_xbars\[0\]\[17\]\[1\]
*192 U_CARRY_GENERATOR/CG_xbars\[0\]\[17\]\[0\]
*193 U_CARRY_GENERATOR/CG_xbars\[0\]\[16\]\[1\]
*194 U_CARRY_GENERATOR/CG_xbars\[0\]\[16\]\[0\]
*195 U_CARRY_GENERATOR/CG_xbars\[0\]\[15\]\[1\]
*196 U_CARRY_GENERATOR/CG_xbars\[0\]\[15\]\[0\]
*197 U_CARRY_GENERATOR/CG_xbars\[0\]\[14\]\[1\]
*198 U_CARRY_GENERATOR/CG_xbars\[0\]\[14\]\[0\]
*199 U_CARRY_GENERATOR/CG_xbars\[0\]\[13\]\[1\]
*200 U_CARRY_GENERATOR/CG_xbars\[0\]\[13\]\[0\]
*201 U_CARRY_GENERATOR/CG_xbars\[0\]\[12\]\[1\]
*202 U_CARRY_GENERATOR/CG_xbars\[0\]\[12\]\[0\]
*203 U_CARRY_GENERATOR/CG_xbars\[0\]\[11\]\[1\]
*204 U_CARRY_GENERATOR/CG_xbars\[0\]\[11\]\[0\]
*205 U_CARRY_GENERATOR/CG_xbars\[0\]\[10\]\[1\]
*206 U_CARRY_GENERATOR/CG_xbars\[0\]\[10\]\[0\]
*207 U_CARRY_GENERATOR/CG_xbars\[0\]\[9\]\[1\]
*208 U_CARRY_GENERATOR/CG_xbars\[0\]\[9\]\[0\]
*209 U_CARRY_GENERATOR/CG_xbars\[0\]\[8\]\[1\]
*210 U_CARRY_GENERATOR/CG_xbars\[0\]\[8\]\[0\]
*211 U_CARRY_GENERATOR/CG_xbars\[0\]\[7\]\[1\]
*212 U_CARRY_GENERATOR/CG_xbars\[0\]\[7\]\[0\]
*213 U_CARRY_GENERATOR/CG_xbars\[0\]\[6\]\[1\]
*214 U_CARRY_GENERATOR/CG_xbars\[0\]\[6\]\[0\]
*215 U_CARRY_GENERATOR/CG_xbars\[0\]\[5\]\[1\]
*216 U_CARRY_GENERATOR/CG_xbars\[0\]\[5\]\[0\]
*217 U_CARRY_GENERATOR/CG_xbars\[0\]\[4\]\[1\]
*218 U_CARRY_GENERATOR/CG_xbars\[0\]\[4\]\[0\]
*219 U_CARRY_GENERATOR/CG_xbars\[0\]\[3\]\[1\]
*220 U_CARRY_GENERATOR/CG_xbars\[0\]\[3\]\[0\]
*221 U_CARRY_GENERATOR/CG_xbars\[0\]\[2\]\[1\]
*222 U_CARRY_GENERATOR/CG_xbars\[0\]\[2\]\[0\]
*223 U_CARRY_GENERATOR/CG_xbars\[0\]\[1\]\[1\]
*224 U_CARRY_GENERATOR/CG_xbars\[0\]\[1\]\[0\]
*225 U_CARRY_GENERATOR/CG_xbars\[0\]\[0\]\[0\]
*226 U_CARRY_GENERATOR/U_RXMOST_PG_PRIM_IS_GG_UNIT_0/n2
*227 U_CARRY_GENERATOR/U_BKBONE_GG_UNIT_1_1/n3
*228 U_CARRY_GENERATOR/U_BKBONE_GG_UNIT_1_3/n3
*229 U_CARRY_GENERATOR/U_BKBONE_GG_UNIT_1_5/n3
*230 U_CARRY_GENERATOR/U_BKBONE_GG_UNIT_1_7/n3
*231 U_CARRY_GENERATOR/U_BKBONE_GG_UNIT_1_9/n3
*232 U_CARRY_GENERATOR/U_BKBONE_GG_UNIT_1_11/n3
*233 U_CARRY_GENERATOR/U_BKBONE_GG_UNIT_1_13/n3
*234 U_CARRY_GENERATOR/U_BKBONE_GG_UNIT_1_15/n3
*235 U_CARRY_GENERATOR/U_BKBONE_GG_UNIT_1_17/n3
*236 U_CARRY_GENERATOR/U_BKBONE_GG_UNIT_1_19/n3
*237 U_CARRY_GENERATOR/U_BKBONE_GG_UNIT_1_21/n3
*238 U_CARRY_GENERATOR/U_BKBONE_GG_UNIT_1_23/n3
*239 U_CARRY_GENERATOR/U_BKBONE_GG_UNIT_1_25/n3
*240 U_CARRY_GENERATOR/U_BKBONE_GG_UNIT_1_27/n3
*241 U_CARRY_GENERATOR/U_BKBONE_GG_UNIT_1_29/n3
*242 U_CARRY_GENERATOR/U_BKBONE_GG_UNIT_1_31/n3
*243 U_CARRY_GENERATOR/U_BKBONE_GG_UNIT_2_3/n3
*244 U_CARRY_GENERATOR/U_BKBONE_GG_UNIT_2_7/n3
*245 U_CARRY_GENERATOR/U_BKBONE_GG_UNIT_2_11/n3
*246 U_CARRY_GENERATOR/U_BKBONE_GG_UNIT_2_15/n3
*247 U_CARRY_GENERATOR/U_BKBONE_GG_UNIT_2_19/n3
*248 U_CARRY_GENERATOR/U_BKBONE_GG_UNIT_2_23/n3
*249 U_CARRY_GENERATOR/U_BKBONE_GG_UNIT_2_27/n3
*250 U_CARRY_GENERATOR/U_BKBONE_GG_UNIT_2_31/n3
*251 U_CARRY_GENERATOR/U_LF_GG_UNIT_1_7/n3
*252 U_CARRY_GENERATOR/U_LF_GG_UNIT_1_15/n3
*253 U_CARRY_GENERATOR/U_LF_GG_UNIT_1_23/n3
*254 U_CARRY_GENERATOR/U_LF_GG_UNIT_1_31/n3
*255 U_CARRY_GENERATOR/U_LF_GG_UNIT_2_11/n3
*256 U_CARRY_GENERATOR/U_LF_GG_UNIT_2_15/n3
*257 U_CARRY_GENERATOR/U_LF_GG_UNIT_2_27/n3
*258 U_CARRY_GENERATOR/U_LF_GG_UNIT_2_31/n3
*259 U_CARRY_GENERATOR/U_LF_GG_UNIT_3_19/n3
*260 U_CARRY_GENERATOR/U_LF_GG_UNIT_3_23/n3
*261 U_CARRY_GENERATOR/U_LF_GG_UNIT_3_27/n3
*262 U_CARRY_GENERATOR/U_LF_GG_UNIT_3_31/n3
*263 U_FIRST_RCA/Co
*264 U_FIRST_RCA/add_1_root_add_43_2\/carry\[3\]
*265 U_FIRST_RCA/add_1_root_add_43_2\/carry\[2\]
*266 U_FIRST_RCA/add_1_root_add_43_2\/carry\[1\]
*267 U_SUM_GENERATOR/U_CSB_1/Co
*268 U_SUM_GENERATOR/U_CSB_1/Co0
*269 U_SUM_GENERATOR/U_CSB_1/Co1
*270 U_SUM_GENERATOR/U_CSB_1/n7
*271 U_SUM_GENERATOR/U_CSB_1/n8
*272 U_SUM_GENERATOR/U_CSB_1/n9
*273 U_SUM_GENERATOR/U_CSB_1/n10
*274 U_SUM_GENERATOR/U_CSB_1/n11
*275 U_SUM_GENERATOR/U_CSB_1/n6
*276 U_SUM_GENERATOR/U_CSB_1/S0[3]
*277 U_SUM_GENERATOR/U_CSB_1/S0[2]
*278 U_SUM_GENERATOR/U_CSB_1/S0[1]
*279 U_SUM_GENERATOR/U_CSB_1/S0[0]
*280 U_SUM_GENERATOR/U_CSB_1/S1[3]
*281 U_SUM_GENERATOR/U_CSB_1/S1[2]
*282 U_SUM_GENERATOR/U_CSB_1/S1[1]
*283 U_SUM_GENERATOR/U_CSB_1/S1[0]
*284 U_SUM_GENERATOR/U_CSB_1/U_RCA0/add_1_root_add_43_2\/carry\[3\]
*285 U_SUM_GENERATOR/U_CSB_1/U_RCA0/add_1_root_add_43_2\/carry\[2\]
*286 U_SUM_GENERATOR/U_CSB_1/U_RCA0/add_1_root_add_43_2\/carry\[1\]
*287 U_SUM_GENERATOR/U_CSB_1/U_RCA1/add_1_root_add_43_2\/carry\[3\]
*288 U_SUM_GENERATOR/U_CSB_1/U_RCA1/add_1_root_add_43_2\/carry\[2\]
*289 U_SUM_GENERATOR/U_CSB_1/U_RCA1/add_1_root_add_43_2\/carry\[1\]
*290 U_SUM_GENERATOR/U_CSB_2/Co
*291 U_SUM_GENERATOR/U_CSB_2/Co0
*292 U_SUM_GENERATOR/U_CSB_2/Co1
*293 U_SUM_GENERATOR/U_CSB_2/n6
*294 U_SUM_GENERATOR/U_CSB_2/n12
*295 U_SUM_GENERATOR/U_CSB_2/n13
*296 U_SUM_GENERATOR/U_CSB_2/n14
*297 U_SUM_GENERATOR/U_CSB_2/n15
*298 U_SUM_GENERATOR/U_CSB_2/n16
*299 U_SUM_GENERATOR/U_CSB_2/S0[3]
*300 U_SUM_GENERATOR/U_CSB_2/S0[2]
*301 U_SUM_GENERATOR/U_CSB_2/S0[1]
*302 U_SUM_GENERATOR/U_CSB_2/S0[0]
*303 U_SUM_GENERATOR/U_CSB_2/S1[3]
*304 U_SUM_GENERATOR/U_CSB_2/S1[2]
*305 U_SUM_GENERATOR/U_CSB_2/S1[1]
*306 U_SUM_GENERATOR/U_CSB_2/S1[0]
*307 U_SUM_GENERATOR/U_CSB_2/U_RCA0/add_1_root_add_43_2\/carry\[3\]
*308 U_SUM_GENERATOR/U_CSB_2/U_RCA0/add_1_root_add_43_2\/carry\[2\]
*309 U_SUM_GENERATOR/U_CSB_2/U_RCA0/add_1_root_add_43_2\/carry\[1\]
*310 U_SUM_GENERATOR/U_CSB_2/U_RCA1/add_1_root_add_43_2\/carry\[3\]
*311 U_SUM_GENERATOR/U_CSB_2/U_RCA1/add_1_root_add_43_2\/carry\[2\]
*312 U_SUM_GENERATOR/U_CSB_2/U_RCA1/add_1_root_add_43_2\/carry\[1\]
*313 U_SUM_GENERATOR/U_CSB_3/Co
*314 U_SUM_GENERATOR/U_CSB_3/Co0
*315 U_SUM_GENERATOR/U_CSB_3/Co1
*316 U_SUM_GENERATOR/U_CSB_3/n6
*317 U_SUM_GENERATOR/U_CSB_3/n12
*318 U_SUM_GENERATOR/U_CSB_3/n13
*319 U_SUM_GENERATOR/U_CSB_3/n14
*320 U_SUM_GENERATOR/U_CSB_3/n15
*321 U_SUM_GENERATOR/U_CSB_3/n16
*322 U_SUM_GENERATOR/U_CSB_3/S0[3]
*323 U_SUM_GENERATOR/U_CSB_3/S0[2]
*324 U_SUM_GENERATOR/U_CSB_3/S0[1]
*325 U_SUM_GENERATOR/U_CSB_3/S0[0]
*326 U_SUM_GENERATOR/U_CSB_3/S1[3]
*327 U_SUM_GENERATOR/U_CSB_3/S1[2]
*328 U_SUM_GENERATOR/U_CSB_3/S1[1]
*329 U_SUM_GENERATOR/U_CSB_3/S1[0]
*330 U_SUM_GENERATOR/U_CSB_3/U_RCA0/add_1_root_add_43_2\/carry\[3\]
*331 U_SUM_GENERATOR/U_CSB_3/U_RCA0/add_1_root_add_43_2\/carry\[2\]
*332 U_SUM_GENERATOR/U_CSB_3/U_RCA0/add_1_root_add_43_2\/carry\[1\]
*333 U_SUM_GENERATOR/U_CSB_3/U_RCA1/add_1_root_add_43_2\/carry\[3\]
*334 U_SUM_GENERATOR/U_CSB_3/U_RCA1/add_1_root_add_43_2\/carry\[2\]
*335 U_SUM_GENERATOR/U_CSB_3/U_RCA1/add_1_root_add_43_2\/carry\[1\]
*336 U_SUM_GENERATOR/U_CSB_4/Co
*337 U_SUM_GENERATOR/U_CSB_4/Co0
*338 U_SUM_GENERATOR/U_CSB_4/Co1
*339 U_SUM_GENERATOR/U_CSB_4/n6
*340 U_SUM_GENERATOR/U_CSB_4/n12
*341 U_SUM_GENERATOR/U_CSB_4/n13
*342 U_SUM_GENERATOR/U_CSB_4/n14
*343 U_SUM_GENERATOR/U_CSB_4/n15
*344 U_SUM_GENERATOR/U_CSB_4/n16
*345 U_SUM_GENERATOR/U_CSB_4/S0[3]
*346 U_SUM_GENERATOR/U_CSB_4/S0[2]
*347 U_SUM_GENERATOR/U_CSB_4/S0[1]
*348 U_SUM_GENERATOR/U_CSB_4/S0[0]
*349 U_SUM_GENERATOR/U_CSB_4/S1[3]
*350 U_SUM_GENERATOR/U_CSB_4/S1[2]
*351 U_SUM_GENERATOR/U_CSB_4/S1[1]
*352 U_SUM_GENERATOR/U_CSB_4/S1[0]
*353 U_SUM_GENERATOR/U_CSB_4/U_RCA0/add_1_root_add_43_2\/carry\[3\]
*354 U_SUM_GENERATOR/U_CSB_4/U_RCA0/add_1_root_add_43_2\/carry\[2\]
*355 U_SUM_GENERATOR/U_CSB_4/U_RCA0/add_1_root_add_43_2\/carry\[1\]
*356 U_SUM_GENERATOR/U_CSB_4/U_RCA1/add_1_root_add_43_2\/carry\[3\]
*357 U_SUM_GENERATOR/U_CSB_4/U_RCA1/add_1_root_add_43_2\/carry\[2\]
*358 U_SUM_GENERATOR/U_CSB_4/U_RCA1/add_1_root_add_43_2\/carry\[1\]
*359 U_SUM_GENERATOR/U_CSB_5/Co
*360 U_SUM_GENERATOR/U_CSB_5/Co0
*361 U_SUM_GENERATOR/U_CSB_5/Co1
*362 U_SUM_GENERATOR/U_CSB_5/n6
*363 U_SUM_GENERATOR/U_CSB_5/n12
*364 U_SUM_GENERATOR/U_CSB_5/n13
*365 U_SUM_GENERATOR/U_CSB_5/n14
*366 U_SUM_GENERATOR/U_CSB_5/n15
*367 U_SUM_GENERATOR/U_CSB_5/n16
*368 U_SUM_GENERATOR/U_CSB_5/S0[3]
*369 U_SUM_GENERATOR/U_CSB_5/S0[2]
*370 U_SUM_GENERATOR/U_CSB_5/S0[1]
*371 U_SUM_GENERATOR/U_CSB_5/S0[0]
*372 U_SUM_GENERATOR/U_CSB_5/S1[3]
*373 U_SUM_GENERATOR/U_CSB_5/S1[2]
*374 U_SUM_GENERATOR/U_CSB_5/S1[1]
*375 U_SUM_GENERATOR/U_CSB_5/S1[0]
*376 U_SUM_GENERATOR/U_CSB_5/U_RCA0/add_1_root_add_43_2\/carry\[3\]
*377 U_SUM_GENERATOR/U_CSB_5/U_RCA0/add_1_root_add_43_2\/carry\[2\]
*378 U_SUM_GENERATOR/U_CSB_5/U_RCA0/add_1_root_add_43_2\/carry\[1\]
*379 U_SUM_GENERATOR/U_CSB_5/U_RCA1/add_1_root_add_43_2\/carry\[3\]
*380 U_SUM_GENERATOR/U_CSB_5/U_RCA1/add_1_root_add_43_2\/carry\[2\]
*381 U_SUM_GENERATOR/U_CSB_5/U_RCA1/add_1_root_add_43_2\/carry\[1\]
*382 U_SUM_GENERATOR/U_CSB_6/Co
*383 U_SUM_GENERATOR/U_CSB_6/Co0
*384 U_SUM_GENERATOR/U_CSB_6/Co1
*385 U_SUM_GENERATOR/U_CSB_6/n6
*386 U_SUM_GENERATOR/U_CSB_6/n12
*387 U_SUM_GENERATOR/U_CSB_6/n13
*388 U_SUM_GENERATOR/U_CSB_6/n14
*389 U_SUM_GENERATOR/U_CSB_6/n15
*390 U_SUM_GENERATOR/U_CSB_6/n16
*391 U_SUM_GENERATOR/U_CSB_6/S0[3]
*392 U_SUM_GENERATOR/U_CSB_6/S0[2]
*393 U_SUM_GENERATOR/U_CSB_6/S0[1]
*394 U_SUM_GENERATOR/U_CSB_6/S0[0]
*395 U_SUM_GENERATOR/U_CSB_6/S1[3]
*396 U_SUM_GENERATOR/U_CSB_6/S1[2]
*397 U_SUM_GENERATOR/U_CSB_6/S1[1]
*398 U_SUM_GENERATOR/U_CSB_6/S1[0]
*399 U_SUM_GENERATOR/U_CSB_6/U_RCA0/add_1_root_add_43_2\/carry\[3\]
*400 U_SUM_GENERATOR/U_CSB_6/U_RCA0/add_1_root_add_43_2\/carry\[2\]
*401 U_SUM_GENERATOR/U_CSB_6/U_RCA0/add_1_root_add_43_2\/carry\[1\]
*402 U_SUM_GENERATOR/U_CSB_6/U_RCA1/add_1_root_add_43_2\/carry\[3\]
*403 U_SUM_GENERATOR/U_CSB_6/U_RCA1/add_1_root_add_43_2\/carry\[2\]
*404 U_SUM_GENERATOR/U_CSB_6/U_RCA1/add_1_root_add_43_2\/carry\[1\]
*405 U_SUM_GENERATOR/U_CSB_7/Co
*406 U_SUM_GENERATOR/U_CSB_7/Co0
*407 U_SUM_GENERATOR/U_CSB_7/Co1
*408 U_SUM_GENERATOR/U_CSB_7/n6
*409 U_SUM_GENERATOR/U_CSB_7/n12
*410 U_SUM_GENERATOR/U_CSB_7/n13
*411 U_SUM_GENERATOR/U_CSB_7/n14
*412 U_SUM_GENERATOR/U_CSB_7/n15
*413 U_SUM_GENERATOR/U_CSB_7/n16
*414 U_SUM_GENERATOR/U_CSB_7/S0[3]
*415 U_SUM_GENERATOR/U_CSB_7/S0[2]
*416 U_SUM_GENERATOR/U_CSB_7/S0[1]
*417 U_SUM_GENERATOR/U_CSB_7/S0[0]
*418 U_SUM_GENERATOR/U_CSB_7/S1[3]
*419 U_SUM_GENERATOR/U_CSB_7/S1[2]
*420 U_SUM_GENERATOR/U_CSB_7/S1[1]
*421 U_SUM_GENERATOR/U_CSB_7/S1[0]
*422 U_SUM_GENERATOR/U_CSB_7/U_RCA0/add_1_root_add_43_2\/carry\[3\]
*423 U_SUM_GENERATOR/U_CSB_7/U_RCA0/add_1_root_add_43_2\/carry\[2\]
*424 U_SUM_GENERATOR/U_CSB_7/U_RCA0/add_1_root_add_43_2\/carry\[1\]
*425 U_SUM_GENERATOR/U_CSB_7/U_RCA1/add_1_root_add_43_2\/carry\[3\]
*426 U_SUM_GENERATOR/U_CSB_7/U_RCA1/add_1_root_add_43_2\/carry\[2\]
*427 U_SUM_GENERATOR/U_CSB_7/U_RCA1/add_1_root_add_43_2\/carry\[1\]
*428 U_CARRY_GENERATOR/U_PG_PRIM_0/U2
*429 U_CARRY_GENERATOR/U_PG_PRIM_0/U1
*430 U_CARRY_GENERATOR/U_RXMOST_PG_PRIM_IS_GG_UNIT_0/U1
*431 U_CARRY_GENERATOR/U_RXMOST_PG_PRIM_IS_GG_UNIT_0/U2
*432 U_CARRY_GENERATOR/U_PG_PRIM_1/U2
*433 U_CARRY_GENERATOR/U_PG_PRIM_1/U1
*434 U_CARRY_GENERATOR/U_PG_PRIM_2/U2
*435 U_CARRY_GENERATOR/U_PG_PRIM_2/U1
*436 U_CARRY_GENERATOR/U_PG_PRIM_3/U2
*437 U_CARRY_GENERATOR/U_PG_PRIM_3/U1
*438 U_CARRY_GENERATOR/U_PG_PRIM_4/U2
*439 U_CARRY_GENERATOR/U_PG_PRIM_4/U1
*440 U_CARRY_GENERATOR/U_PG_PRIM_5/U2
*441 U_CARRY_GENERATOR/U_PG_PRIM_5/U1
*442 U_CARRY_GENERATOR/U_PG_PRIM_6/U2
*443 U_CARRY_GENERATOR/U_PG_PRIM_6/U1
*444 U_CARRY_GENERATOR/U_PG_PRIM_7/U2
*445 U_CARRY_GENERATOR/U_PG_PRIM_7/U1
*446 U_CARRY_GENERATOR/U_PG_PRIM_8/U2
*447 U_CARRY_GENERATOR/U_PG_PRIM_8/U1
*448 U_CARRY_GENERATOR/U_PG_PRIM_9/U2
*449 U_CARRY_GENERATOR/U_PG_PRIM_9/U1
*450 U_CARRY_GENERATOR/U_PG_PRIM_10/U2
*451 U_CARRY_GENERATOR/U_PG_PRIM_10/U1
*452 U_CARRY_GENERATOR/U_PG_PRIM_11/U2
*453 U_CARRY_GENERATOR/U_PG_PRIM_11/U1
*454 U_CARRY_GENERATOR/U_PG_PRIM_12/U2
*455 U_CARRY_GENERATOR/U_PG_PRIM_12/U1
*456 U_CARRY_GENERATOR/U_PG_PRIM_13/U2
*457 U_CARRY_GENERATOR/U_PG_PRIM_13/U1
*458 U_CARRY_GENERATOR/U_PG_PRIM_14/U2
*459 U_CARRY_GENERATOR/U_PG_PRIM_14/U1
*460 U_CARRY_GENERATOR/U_PG_PRIM_15/U2
*461 U_CARRY_GENERATOR/U_PG_PRIM_15/U1
*462 U_CARRY_GENERATOR/U_PG_PRIM_16/U2
*463 U_CARRY_GENERATOR/U_PG_PRIM_16/U1
*464 U_CARRY_GENERATOR/U_PG_PRIM_17/U2
*465 U_CARRY_GENERATOR/U_PG_PRIM_17/U1
*466 U_CARRY_GENERATOR/U_PG_PRIM_18/U2
*467 U_CARRY_GENERATOR/U_PG_PRIM_18/U1
*468 U_CARRY_GENERATOR/U_PG_PRIM_19/U2
*469 U_CARRY_GENERATOR/U_PG_PRIM_19/U1
*470 U_CARRY_GENERATOR/U_PG_PRIM_20/U2
*471 U_CARRY_GENERATOR/U_PG_PRIM_20/U1
*472 U_CARRY_GENERATOR/U_PG_PRIM_21/U2
*473 U_CARRY_GENERATOR/U_PG_PRIM_21/U1
*474 U_CARRY_GENERATOR/U_PG_PRIM_22/U2
*475 U_CARRY_GENERATOR/U_PG_PRIM_22/U1
*476 U_CARRY_GENERATOR/U_PG_PRIM_23/U2
*477 U_CARRY_GENERATOR/U_PG_PRIM_23/U1
*478 U_CARRY_GENERATOR/U_PG_PRIM_24/U2
*479 U_CARRY_GENERATOR/U_PG_PRIM_24/U1
*480 U_CARRY_GENERATOR/U_PG_PRIM_25/U2
*481 U_CARRY_GENERATOR/U_PG_PRIM_25/U1
*482 U_CARRY_GENERATOR/U_PG_PRIM_26/U2
*483 U_CARRY_GENERATOR/U_PG_PRIM_26/U1
*484 U_CARRY_GENERATOR/U_PG_PRIM_27/U2
*485 U_CARRY_GENERATOR/U_PG_PRIM_27/U1
*486 U_CARRY_GENERATOR/U_PG_PRIM_28/U2
*487 U_CARRY_GENERATOR/U_PG_PRIM_28/U1
*488 U_CARRY_GENERATOR/U_PG_PRIM_29/U2
*489 U_CARRY_GENERATOR/U_PG_PRIM_29/U1
*490 U_CARRY_GENERATOR/U_PG_PRIM_30/U2
*491 U_CARRY_GENERATOR/U_PG_PRIM_30/U1
*492 U_CARRY_GENERATOR/U_PG_PRIM_31/U2
*493 U_CARRY_GENERATOR/U_PG_PRIM_31/U1
*494 U_CARRY_GENERATOR/U_BKBONE_GG_UNIT_1_1/U1
*495 U_CARRY_GENERATOR/U_BKBONE_GG_UNIT_1_1/U2
*496 U_CARRY_GENERATOR/U_BKBONE_GG_UNIT_1_3/U1
*497 U_CARRY_GENERATOR/U_BKBONE_GG_UNIT_1_3/U2
*498 U_CARRY_GENERATOR/U_BKBONE_GP_UNIT_1_3/U1
*499 U_CARRY_GENERATOR/U_BKBONE_GG_UNIT_1_5/U1
*500 U_CARRY_GENERATOR/U_BKBONE_GG_UNIT_1_5/U2
*501 U_CARRY_GENERATOR/U_BKBONE_GP_UNIT_1_5/U1
*502 U_CARRY_GENERATOR/U_BKBONE_GG_UNIT_1_7/U1
*503 U_CARRY_GENERATOR/U_BKBONE_GG_UNIT_1_7/U2
*504 U_CARRY_GENERATOR/U_BKBONE_GP_UNIT_1_7/U1
*505 U_CARRY_GENERATOR/U_BKBONE_GG_UNIT_1_9/U1
*506 U_CARRY_GENERATOR/U_BKBONE_GG_UNIT_1_9/U2
*507 U_CARRY_GENERATOR/U_BKBONE_GP_UNIT_1_9/U1
*508 U_CARRY_GENERATOR/U_BKBONE_GG_UNIT_1_11/U1
*509 U_CARRY_GENERATOR/U_BKBONE_GG_UNIT_1_11/U2
*510 U_CARRY_GENERATOR/U_BKBONE_GP_UNIT_1_11/U1
*511 U_CARRY_GENERATOR/U_BKBONE_GG_UNIT_1_13/U1
*512 U_CARRY_GENERATOR/U_BKBONE_GG_UNIT_1_13/U2
*513 U_CARRY_GENERATOR/U_BKBONE_GP_UNIT_1_13/U1
*514 U_CARRY_GENERATOR/U_BKBONE_GG_UNIT_1_15/U1
*515 U_CARRY_GENERATOR/U_BKBONE_GG_UNIT_1_15/U2
*516 U_CARRY_GENERATOR/U_BKBONE_GP_UNIT_1_15/U1
*517 U_CARRY_GENERATOR/U_BKBONE_GG_UNIT_1_17/U1
*518 U_CARRY_GENERATOR/U_BKBONE_GG_UNIT_1_17/U2
*519 U_CARRY_GENERATOR/U_BKBONE_GP_UNIT_1_17/U1
*520 U_CARRY_GENERATOR/U_BKBONE_GG_UNIT_1_19/U1
*521 U_CARRY_GENERATOR/U_BKBONE_GG_UNIT_1_19/U2
*522 U_CARRY_GENERATOR/U_BKBONE_GP_UNIT_1_19/U1
*523 U_CARRY_GENERATOR/U_BKBONE_GG_UNIT_1_21/U1
*524 U_CARRY_GENERATOR/U_BKBONE_GG_UNIT_1_21/U2
*525 U_CARRY_GENERATOR/U_BKBONE_GP_UNIT_1_21/U1
*526 U_CARRY_GENERATOR/U_BKBONE_GG_UNIT_1_23/U1
*527 U_CARRY_GENERATOR/U_BKBONE_GG_UNIT_1_23/U2
*528 U_CARRY_GENERATOR/U_BKBONE_GP_UNIT_1_23/U1
*529 U_CARRY_GENERATOR/U_BKBONE_GG_UNIT_1_25/U1
*530 U_CARRY_GENERATOR/U_BKBONE_GG_UNIT_1_25/U2
*531 U_CARRY_GENERATOR/U_BKBONE_GP_UNIT_1_25/U1
*532 U_CARRY_GENERATOR/U_BKBONE_GG_UNIT_1_27/U1
*533 U_CARRY_GENERATOR/U_BKBONE_GG_UNIT_1_27/U2
*534 U_CARRY_GENERATOR/U_BKBONE_GP_UNIT_1_27/U1
*535 U_CARRY_GENERATOR/U_BKBONE_GG_UNIT_1_29/U1
*536 U_CARRY_GENERATOR/U_BKBONE_GG_UNIT_1_29/U2
*537 U_CARRY_GENERATOR/U_BKBONE_GP_UNIT_1_29/U1
*538 U_CARRY_GENERATOR/U_BKBONE_GG_UNIT_1_31/U1
*539 U_CARRY_GENERATOR/U_BKBONE_GG_UNIT_1_31/U2
*540 U_CARRY_GENERATOR/U_BKBONE_GP_UNIT_1_31/U1
*541 U_CARRY_GENERATOR/U_BKBONE_GG_UNIT_2_3/U1
*542 U_CARRY_GENERATOR/U_BKBONE_GG_UNIT_2_3/U2
*543 U_CARRY_GENERATOR/U_BKBONE_GG_UNIT_2_7/U1
*544 U_CARRY_GENERATOR/U_BKBONE_GG_UNIT_2_7/U2
*545 U_CARRY_GENERATOR/U_BKBONE_GP_UNIT_2_7/U1
*546 U_CARRY_GENERATOR/U_BKBONE_GG_UNIT_2_11/U1
*547 U_CARRY_GENERATOR/U_BKBONE_GG_UNIT_2_11/U2
*548 U_CARRY_GENERATOR/U_BKBONE_GP_UNIT_2_11/U1
*549 U_CARRY_GENERATOR/U_BKBONE_GG_UNIT_2_15/U1
*550 U_CARRY_GENERATOR/U_BKBONE_GG_UNIT_2_15/U2
*551 U_CARRY_GENERATOR/U_BKBONE_GP_UNIT_2_15/U1
*552 U_CARRY_GENERATOR/U_BKBONE_GG_UNIT_2_19/U1
*553 U_CARRY_GENERATOR/U_BKBONE_GG_UNIT_2_19/U2
*554 U_CARRY_GENERATOR/U_BKBONE_GP_UNIT_2_19/U1
*555 U_CARRY_GENERATOR/U_BKBONE_GG_UNIT_2_23/U1
*556 U_CARRY_GENERATOR/U_BKBONE_GG_UNIT_2_23/U2
*557 U_CARRY_GENERATOR/U_BKBONE_GP_UNIT_2_23/U1
*558 U_CARRY_GENERATOR/U_BKBONE_GG_UNIT_2_27/U1
*559 U_CARRY_GENERATOR/U_BKBONE_GG_UNIT_2_27/U2
*560 U_CARRY_GENERATOR/U_BKBONE_GP_UNIT_2_27/U1
*561 U_CARRY_GENERATOR/U_BKBONE_GG_UNIT_2_31/U1
*562 U_CARRY_GENERATOR/U_BKBONE_GG_UNIT_2_31/U2
*563 U_CARRY_GENERATOR/U_BKBONE_GP_UNIT_2_31/U1
*564 U_CARRY_GENERATOR/U_LF_GG_UNIT_1_7/U1
*565 U_CARRY_GENERATOR/U_LF_GG_UNIT_1_7/U2
*566 U_CARRY_GENERATOR/U_LF_GG_UNIT_1_15/U1
*567 U_CARRY_GENERATOR/U_LF_GG_UNIT_1_15/U2
*568 U_CARRY_GENERATOR/U_LF_GP_UNIT_1_15/U1
*569 U_CARRY_GENERATOR/U_LF_GG_UNIT_1_23/U1
*570 U_CARRY_GENERATOR/U_LF_GG_UNIT_1_23/U2
*571 U_CARRY_GENERATOR/U_LF_GP_UNIT_1_23/U1
*572 U_CARRY_GENERATOR/U_LF_GG_UNIT_1_31/U1
*573 U_CARRY_GENERATOR/U_LF_GG_UNIT_1_31/U2
*574 U_CARRY_GENERATOR/U_LF_GP_UNIT_1_31/U1
*575 U_CARRY_GENERATOR/U_LF_GG_UNIT_2_11/U1
*576 U_CARRY_GENERATOR/U_LF_GG_UNIT_2_11/U2
*577 U_CARRY_GENERATOR/U_LF_GG_UNIT_2_15/U1
*578 U_CARRY_GENERATOR/U_LF_GG_UNIT_2_15/U2
*579 U_CARRY_GENERATOR/U_LF_GG_UNIT_2_27/U1
*580 U_CARRY_GENERATOR/U_LF_GG_UNIT_2_27/U2
*581 U_CARRY_GENERATOR/U_LF_GP_UNIT_2_27/U1
*582 U_CARRY_GENERATOR/U_LF_GG_UNIT_2_31/U1
*583 U_CARRY_GENERATOR/U_LF_GG_UNIT_2_31/U2
*584 U_CARRY_GENERATOR/U_LF_GP_UNIT_2_31/U1
*585 U_CARRY_GENERATOR/U_LF_GG_UNIT_3_19/U1
*586 U_CARRY_GENERATOR/U_LF_GG_UNIT_3_19/U2
*587 U_CARRY_GENERATOR/U_LF_GG_UNIT_3_23/U1
*588 U_CARRY_GENERATOR/U_LF_GG_UNIT_3_23/U2
*589 U_CARRY_GENERATOR/U_LF_GG_UNIT_3_27/U1
*590 U_CARRY_GENERATOR/U_LF_GG_UNIT_3_27/U2
*591 U_CARRY_GENERATOR/U_LF_GG_UNIT_3_31/U1
*592 U_CARRY_GENERATOR/U_LF_GG_UNIT_3_31/U2
*593 U_FIRST_RCA/add_1_root_add_43_2\/U1_0
*594 U_FIRST_RCA/add_1_root_add_43_2\/U1_1
*595 U_FIRST_RCA/add_1_root_add_43_2\/U1_2
*596 U_FIRST_RCA/add_1_root_add_43_2\/U1_3
*597 U_SUM_GENERATOR/U_CSB_1/U_RCA0/add_1_root_add_43_2\/U1_0
*598 U_SUM_GENERATOR/U_CSB_1/U_RCA0/add_1_root_add_43_2\/U1_1
*599 U_SUM_GENERATOR/U_CSB_1/U_RCA0/add_1_root_add_43_2\/U1_2
*600 U_SUM_GENERATOR/U_CSB_1/U_RCA0/add_1_root_add_43_2\/U1_3
*601 U_SUM_GENERATOR/U_CSB_1/U_RCA1/add_1_root_add_43_2\/U1_0
*602 U_SUM_GENERATOR/U_CSB_1/U_RCA1/add_1_root_add_43_2\/U1_1
*603 U_SUM_GENERATOR/U_CSB_1/U_RCA1/add_1_root_add_43_2\/U1_2
*604 U_SUM_GENERATOR/U_CSB_1/U_RCA1/add_1_root_add_43_2\/U1_3
*605 U_SUM_GENERATOR/U_CSB_1/U3
*606 U_SUM_GENERATOR/U_CSB_1/U4
*607 U_SUM_GENERATOR/U_CSB_1/U5
*608 U_SUM_GENERATOR/U_CSB_1/U6
*609 U_SUM_GENERATOR/U_CSB_1/U7
*610 U_SUM_GENERATOR/U_CSB_1/U8
*611 U_SUM_GENERATOR/U_CSB_1/U9
*612 U_SUM_GENERATOR/U_CSB_1/U10
*613 U_SUM_GENERATOR/U_CSB_1/U11
*614 U_SUM_GENERATOR/U_CSB_1/U12
*615 U_SUM_GENERATOR/U_CSB_1/U13
*616 U_SUM_GENERATOR/U_CSB_2/U_RCA0/add_1_root_add_43_2\/U1_0
*617 U_SUM_GENERATOR/U_CSB_2/U_RCA0/add_1_root_add_43_2\/U1_1
*618 U_SUM_GENERATOR/U_CSB_2/U_RCA0/add_1_root_add_43_2\/U1_2
*619 U_SUM_GENERATOR/U_CSB_2/U_RCA0/add_1_root_add_43_2\/U1_3
*620 U_SUM_GENERATOR/U_CSB_2/U_RCA1/add_1_root_add_43_2\/U1_0
*621 U_SUM_GENERATOR/U_CSB_2/U_RCA1/add_1_root_add_43_2\/U1_1
*622 U_SUM_GENERATOR/U_CSB_2/U_RCA1/add_1_root_add_43_2\/U1_2
*623 U_SUM_GENERATOR/U_CSB_2/U_RCA1/add_1_root_add_43_2\/U1_3
*624 U_SUM_GENERATOR/U_CSB_2/U3
*625 U_SUM_GENERATOR/U_CSB_2/U4
*626 U_SUM_GENERATOR/U_CSB_2/U5
*627 U_SUM_GENERATOR/U_CSB_2/U6
*628 U_SUM_GENERATOR/U_CSB_2/U7
*629 U_SUM_GENERATOR/U_CSB_2/U8
*630 U_SUM_GENERATOR/U_CSB_2/U9
*631 U_SUM_GENERATOR/U_CSB_2/U10
*632 U_SUM_GENERATOR/U_CSB_2/U11
*633 U_SUM_GENERATOR/U_CSB_2/U12
*634 U_SUM_GENERATOR/U_CSB_2/U13
*635 U_SUM_GENERATOR/U_CSB_3/U_RCA0/add_1_root_add_43_2\/U1_0
*636 U_SUM_GENERATOR/U_CSB_3/U_RCA0/add_1_root_add_43_2\/U1_1
*637 U_SUM_GENERATOR/U_CSB_3/U_RCA0/add_1_root_add_43_2\/U1_2
*638 U_SUM_GENERATOR/U_CSB_3/U_RCA0/add_1_root_add_43_2\/U1_3
*639 U_SUM_GENERATOR/U_CSB_3/U_RCA1/add_1_root_add_43_2\/U1_0
*640 U_SUM_GENERATOR/U_CSB_3/U_RCA1/add_1_root_add_43_2\/U1_1
*641 U_SUM_GENERATOR/U_CSB_3/U_RCA1/add_1_root_add_43_2\/U1_2
*642 U_SUM_GENERATOR/U_CSB_3/U_RCA1/add_1_root_add_43_2\/U1_3
*643 U_SUM_GENERATOR/U_CSB_3/U3
*644 U_SUM_GENERATOR/U_CSB_3/U4
*645 U_SUM_GENERATOR/U_CSB_3/U5
*646 U_SUM_GENERATOR/U_CSB_3/U6
*647 U_SUM_GENERATOR/U_CSB_3/U7
*648 U_SUM_GENERATOR/U_CSB_3/U8
*649 U_SUM_GENERATOR/U_CSB_3/U9
*650 U_SUM_GENERATOR/U_CSB_3/U10
*651 U_SUM_GENERATOR/U_CSB_3/U11
*652 U_SUM_GENERATOR/U_CSB_3/U12
*653 U_SUM_GENERATOR/U_CSB_3/U13
*654 U_SUM_GENERATOR/U_CSB_4/U_RCA0/add_1_root_add_43_2\/U1_0
*655 U_SUM_GENERATOR/U_CSB_4/U_RCA0/add_1_root_add_43_2\/U1_1
*656 U_SUM_GENERATOR/U_CSB_4/U_RCA0/add_1_root_add_43_2\/U1_2
*657 U_SUM_GENERATOR/U_CSB_4/U_RCA0/add_1_root_add_43_2\/U1_3
*658 U_SUM_GENERATOR/U_CSB_4/U_RCA1/add_1_root_add_43_2\/U1_0
*659 U_SUM_GENERATOR/U_CSB_4/U_RCA1/add_1_root_add_43_2\/U1_1
*660 U_SUM_GENERATOR/U_CSB_4/U_RCA1/add_1_root_add_43_2\/U1_2
*661 U_SUM_GENERATOR/U_CSB_4/U_RCA1/add_1_root_add_43_2\/U1_3
*662 U_SUM_GENERATOR/U_CSB_4/U3
*663 U_SUM_GENERATOR/U_CSB_4/U4
*664 U_SUM_GENERATOR/U_CSB_4/U5
*665 U_SUM_GENERATOR/U_CSB_4/U6
*666 U_SUM_GENERATOR/U_CSB_4/U7
*667 U_SUM_GENERATOR/U_CSB_4/U8
*668 U_SUM_GENERATOR/U_CSB_4/U9
*669 U_SUM_GENERATOR/U_CSB_4/U10
*670 U_SUM_GENERATOR/U_CSB_4/U11
*671 U_SUM_GENERATOR/U_CSB_4/U12
*672 U_SUM_GENERATOR/U_CSB_4/U13
*673 U_SUM_GENERATOR/U_CSB_5/U_RCA0/add_1_root_add_43_2\/U1_0
*674 U_SUM_GENERATOR/U_CSB_5/U_RCA0/add_1_root_add_43_2\/U1_1
*675 U_SUM_GENERATOR/U_CSB_5/U_RCA0/add_1_root_add_43_2\/U1_2
*676 U_SUM_GENERATOR/U_CSB_5/U_RCA0/add_1_root_add_43_2\/U1_3
*677 U_SUM_GENERATOR/U_CSB_5/U_RCA1/add_1_root_add_43_2\/U1_0
*678 U_SUM_GENERATOR/U_CSB_5/U_RCA1/add_1_root_add_43_2\/U1_1
*679 U_SUM_GENERATOR/U_CSB_5/U_RCA1/add_1_root_add_43_2\/U1_2
*680 U_SUM_GENERATOR/U_CSB_5/U_RCA1/add_1_root_add_43_2\/U1_3
*681 U_SUM_GENERATOR/U_CSB_5/U3
*682 U_SUM_GENERATOR/U_CSB_5/U4
*683 U_SUM_GENERATOR/U_CSB_5/U5
*684 U_SUM_GENERATOR/U_CSB_5/U6
*685 U_SUM_GENERATOR/U_CSB_5/U7
*686 U_SUM_GENERATOR/U_CSB_5/U8
*687 U_SUM_GENERATOR/U_CSB_5/U9
*688 U_SUM_GENERATOR/U_CSB_5/U10
*689 U_SUM_GENERATOR/U_CSB_5/U11
*690 U_SUM_GENERATOR/U_CSB_5/U12
*691 U_SUM_GENERATOR/U_CSB_5/U13
*692 U_SUM_GENERATOR/U_CSB_6/U_RCA0/add_1_root_add_43_2\/U1_0
*693 U_SUM_GENERATOR/U_CSB_6/U_RCA0/add_1_root_add_43_2\/U1_1
*694 U_SUM_GENERATOR/U_CSB_6/U_RCA0/add_1_root_add_43_2\/U1_2
*695 U_SUM_GENERATOR/U_CSB_6/U_RCA0/add_1_root_add_43_2\/U1_3
*696 U_SUM_GENERATOR/U_CSB_6/U_RCA1/add_1_root_add_43_2\/U1_0
*697 U_SUM_GENERATOR/U_CSB_6/U_RCA1/add_1_root_add_43_2\/U1_1
*698 U_SUM_GENERATOR/U_CSB_6/U_RCA1/add_1_root_add_43_2\/U1_2
*699 U_SUM_GENERATOR/U_CSB_6/U_RCA1/add_1_root_add_43_2\/U1_3
*700 U_SUM_GENERATOR/U_CSB_6/U3
*701 U_SUM_GENERATOR/U_CSB_6/U4
*702 U_SUM_GENERATOR/U_CSB_6/U5
*703 U_SUM_GENERATOR/U_CSB_6/U6
*704 U_SUM_GENERATOR/U_CSB_6/U7
*705 U_SUM_GENERATOR/U_CSB_6/U8
*706 U_SUM_GENERATOR/U_CSB_6/U9
*707 U_SUM_GENERATOR/U_CSB_6/U10
*708 U_SUM_GENERATOR/U_CSB_6/U11
*709 U_SUM_GENERATOR/U_CSB_6/U12
*710 U_SUM_GENERATOR/U_CSB_6/U13
*711 U_SUM_GENERATOR/U_CSB_7/U_RCA0/add_1_root_add_43_2\/U1_0
*712 U_SUM_GENERATOR/U_CSB_7/U_RCA0/add_1_root_add_43_2\/U1_1
*713 U_SUM_GENERATOR/U_CSB_7/U_RCA0/add_1_root_add_43_2\/U1_2
*714 U_SUM_GENERATOR/U_CSB_7/U_RCA0/add_1_root_add_43_2\/U1_3
*715 U_SUM_GENERATOR/U_CSB_7/U_RCA1/add_1_root_add_43_2\/U1_0
*716 U_SUM_GENERATOR/U_CSB_7/U_RCA1/add_1_root_add_43_2\/U1_1
*717 U_SUM_GENERATOR/U_CSB_7/U_RCA1/add_1_root_add_43_2\/U1_2
*718 U_SUM_GENERATOR/U_CSB_7/U_RCA1/add_1_root_add_43_2\/U1_3
*719 U_SUM_GENERATOR/U_CSB_7/U3
*720 U_SUM_GENERATOR/U_CSB_7/U4
*721 U_SUM_GENERATOR/U_CSB_7/U5
*722 U_SUM_GENERATOR/U_CSB_7/U6
*723 U_SUM_GENERATOR/U_CSB_7/U7
*724 U_SUM_GENERATOR/U_CSB_7/U8
*725 U_SUM_GENERATOR/U_CSB_7/U9
*726 U_SUM_GENERATOR/U_CSB_7/U10
*727 U_SUM_GENERATOR/U_CSB_7/U11
*728 U_SUM_GENERATOR/U_CSB_7/U12
*729 U_SUM_GENERATOR/U_CSB_7/U13


*PORTS

*1 I *C 39.805 38.08
*2 I *C 38.475 38.08
*3 I *C 37.145 38.08
*4 I *C 35.815 38.08
*5 I *C 34.675 38.08
*6 I *C 33.345 38.08
*7 I *C 32.015 38.08
*8 I *C 30.685 38.08
*9 I *C 29.545 38.08
*10 I *C 28.215 38.08
*11 I *C 26.885 38.08
*12 I *C 25.555 38.08
*13 I *C 24.415 38.08
*14 I *C 23.085 38.08
*15 I *C 21.755 38.08
*16 I *C 20.425 38.08
*17 I *C 19.285 38.08
*18 I *C 17.955 38.08
*19 I *C 16.625 38.08
*20 I *C 15.295 38.08
*21 I *C 14.155 38.08
*22 I *C 12.825 38.08
*23 I *C 11.495 38.08
*24 I *C 10.165 38.08
*25 I *C 9.025 38.08
*26 I *C 7.695 38.08
*27 I *C 6.365 38.08
*28 I *C 5.035 38.08
*29 I *C 3.895 38.08
*30 I *C 2.565 38.08
*31 I *C 1.235 38.08
*32 I *C 0.095 38.08
*33 I *C 0 37.87
*34 I *C 0 36.75