*SPEF "IEEE 1481-1998"
*DESIGN "SUM"
*DATE "Thu May 26 09:57:26 2022"
*VENDOR "Cadence Design Systems, Inc."
*PROGRAM "Innovus"
*VERSION "17.11-s080_1"
*DESIGN_FLOW "COUPLING C" "PIN_CAP NONE" "NAME_SCOPE LOCAL"
*DIVIDER /
*DELIMITER :
*BUS_DELIMITER []
*T_UNIT 1 NS
*C_UNIT 1 PF
*R_UNIT 1 OHM
*L_UNIT 1 HENRY

// MMMC spef file for corner 'standard'

*NAME_MAP

*1 FE_PHN529_RST
*2 FE_PHN528_B_3
*3 FE_PHN527_B_4
*4 FE_PHN526_B_2
*5 FE_PHN525_B_0
*6 FE_PHN524_B_5
*7 FE_PHN523_B_1
*8 FE_PHN522_B_6
*9 FE_PHN521_A_107
*10 FE_PHN520_A_36
*11 FE_PHN519_A_35
*12 FE_PHN518_A_109
*13 FE_PHN517_A_108
*14 FE_PHN516_A_105
*15 FE_PHN515_B_18
*16 FE_PHN514_B_13
*17 FE_PHN513_B_7
*18 FE_PHN512_A_110
*19 FE_PHN511_B_19
*20 FE_PHN510_B_9
*21 FE_PHN509_A_117
*22 FE_PHN508_A_111
*23 FE_PHN507_A_106
*24 FE_PHN506_A_103
*25 FE_PHN505_B_17
*26 FE_PHN504_B_15
*27 FE_PHN503_B_11
*28 FE_PHN502_B_8
*29 FE_PHN501_A_126
*30 FE_PHN500_A_122
*31 FE_PHN499_A_119
*32 FE_PHN498_A_113
*33 FE_PHN497_A_102
*34 FE_PHN496_A_38
*35 FE_PHN495_A_37
*36 FE_PHN494_A_34
*37 FE_PHN493_B_21
*38 FE_PHN492_B_20
*39 FE_PHN491_B_14
*40 FE_PHN490_A_112
*41 FE_PHN489_A_30
*42 FE_PHN488_B_24
*43 FE_PHN487_B_22
*44 FE_PHN486_B_16
*45 FE_PHN485_B_10
*46 FE_PHN484_A_120
*47 FE_PHN483_A_118
*48 FE_PHN482_A_116
*49 FE_PHN481_A_115
*50 FE_PHN480_A_101
*51 FE_PHN479_A_43
*52 FE_PHN478_A_33
*53 FE_PHN477_A_31
*54 FE_PHN476_A_21
*55 FE_PHN475_B_95
*56 FE_PHN474_B_31
*57 FE_PHN473_B_23
*58 FE_PHN472_B_12
*59 FE_PHN471_A_127
*60 FE_PHN470_A_125
*61 FE_PHN469_A_123
*62 FE_PHN468_A_121
*63 FE_PHN467_A_114
*64 FE_PHN466_A_104
*65 FE_PHN465_A_100
*66 FE_PHN464_A_99
*67 FE_PHN463_A_39
*68 FE_PHN462_A_32
*69 FE_PHN461_A_29
*70 FE_PHN460_A_22
*71 FE_PHN459_A_20
*72 FE_PHN458_A_19
*73 FE_PHN457_A_17
*74 FE_PHN456_A_0
*75 FE_PHN455_B_94
*76 FE_PHN454_B_36
*77 FE_PHN453_A_44
*78 FE_PHN452_A_40
*79 FE_PHN451_A_2
*80 FE_PHN450_A_1
*81 FE_PHN449_B_101
*82 FE_PHN448_B_97
*83 FE_PHN447_B_37
*84 FE_PHN446_B_35
*85 FE_PHN445_B_34
*86 FE_PHN444_B_25
*87 FE_PHN443_A_124
*88 FE_PHN442_A_42
*89 FE_PHN441_A_28
*90 FE_PHN440_A_23
*91 FE_PHN439_A_18
*92 FE_PHN438_A_16
*93 FE_PHN437_A_15
*94 FE_PHN436_A_3
*95 FE_PHN435_B_102
*96 FE_PHN434_B_39
*97 FE_PHN433_B_38
*98 FE_PHN432_B_30
*99 FE_PHN431_B_29
*100 FE_PHN430_B_28
*101 FE_PHN429_Ci
*102 FE_PHN428_A_97
*103 FE_PHN427_A_45
*104 FE_PHN426_A_41
*105 FE_PHN425_A_27
*106 FE_PHN424_A_25
*107 FE_PHN423_A_24
*108 FE_PHN422_A_4
*109 FE_PHN421_B_100
*110 FE_PHN420_B_99
*111 FE_PHN419_B_98
*112 FE_PHN418_B_96
*113 FE_PHN417_B_92
*114 FE_PHN416_B_88
*115 FE_PHN415_B_44
*116 FE_PHN414_B_43
*117 FE_PHN413_B_32
*118 FE_PHN412_A_46
*119 FE_PHN411_A_26
*120 FE_PHN410_A_13
*121 FE_PHN409_A_5
*122 FE_PHN408_B_114
*123 FE_PHN407_B_106
*124 FE_PHN406_B_103
*125 FE_PHN405_B_93
*126 FE_PHN404_B_86
*127 FE_PHN403_B_45
*128 FE_PHN402_B_26
*129 FE_PHN401_A_98
*130 FE_PHN400_A_96
*131 FE_PHN399_A_47
*132 FE_PHN398_A_14
*133 FE_PHN397_B_87
*134 FE_PHN396_B_78
*135 FE_PHN395_B_40
*136 FE_PHN394_B_33
*137 FE_PHN393_A_49
*138 FE_PHN392_A_12
*139 FE_PHN391_B_42
*140 FE_PHN390_B_27
*141 FE_PHN389_A_93
*142 FE_PHN388_A_91
*143 FE_PHN387_A_50
*144 FE_PHN386_A_48
*145 FE_PHN385_A_11
*146 FE_PHN384_A_10
*147 FE_PHN383_A_6
*148 FE_PHN382_B_104
*149 FE_PHN381_B_91
*150 FE_PHN380_B_90
*151 FE_PHN379_B_83
*152 FE_PHN378_B_77
*153 FE_PHN377_B_76
*154 FE_PHN376_B_47
*155 FE_PHN375_RST
*156 FE_PHN374_A_95
*157 FE_PHN373_A_92
*158 FE_PHN372_A_90
*159 FE_PHN371_A_68
*160 FE_PHN370_A_55
*161 FE_PHN369_A_51
*162 FE_PHN368_A_9
*163 FE_PHN367_A_7
*164 FE_PHN366_B_127
*165 FE_PHN365_B_116
*166 FE_PHN364_B_115
*167 FE_PHN363_B_113
*168 FE_PHN362_B_112
*169 FE_PHN361_B_110
*170 FE_PHN360_B_107
*171 FE_PHN359_B_89
*172 FE_PHN358_B_85
*173 FE_PHN357_B_84
*174 FE_PHN356_B_80
*175 FE_PHN355_B_75
*176 FE_PHN354_B_62
*177 FE_PHN353_B_61
*178 FE_PHN352_B_48
*179 FE_PHN351_B_46
*180 FE_PHN350_B_41
*181 FE_PHN349_A_94
*182 FE_PHN348_A_89
*183 FE_PHN347_A_82
*184 FE_PHN346_A_72
*185 FE_PHN345_A_69
*186 FE_PHN344_A_53
*187 FE_PHN343_A_52
*188 FE_PHN342_B_126
*189 FE_PHN341_B_117
*190 FE_PHN340_B_109
*191 FE_PHN339_B_108
*192 FE_PHN338_B_105
*193 FE_PHN337_B_82
*194 FE_PHN336_B_81
*195 FE_PHN335_B_79
*196 FE_PHN334_B_74
*197 FE_PHN333_B_63
*198 FE_PHN332_B_59
*199 FE_PHN331_B_53
*200 FE_PHN330_A_83
*201 FE_PHN329_A_70
*202 FE_PHN328_A_67
*203 FE_PHN327_A_66
*204 FE_PHN326_A_65
*205 FE_PHN325_A_60
*206 FE_PHN324_A_58
*207 FE_PHN323_A_54
*208 FE_PHN322_A_8
*209 FE_PHN321_B_125
*210 FE_PHN320_B_124
*211 FE_PHN319_B_121
*212 FE_PHN318_B_120
*213 FE_PHN317_B_118
*214 FE_PHN316_B_73
*215 FE_PHN315_B_71
*216 FE_PHN314_B_64
*217 FE_PHN313_B_57
*218 FE_PHN312_B_51
*219 FE_PHN311_A_88
*220 FE_PHN310_A_85
*221 FE_PHN309_A_81
*222 FE_PHN308_A_79
*223 FE_PHN307_A_73
*224 FE_PHN306_A_71
*225 FE_PHN305_A_64
*226 FE_PHN304_A_57
*227 FE_PHN303_A_56
*228 FE_PHN302_B_119
*229 FE_PHN301_B_111
*230 FE_PHN300_B_66
*231 FE_PHN299_B_65
*232 FE_PHN298_B_60
*233 FE_PHN297_B_58
*234 FE_PHN296_B_54
*235 FE_PHN295_B_52
*236 FE_PHN294_B_50
*237 FE_PHN293_B_49
*238 FE_PHN292_A_87
*239 FE_PHN291_A_86
*240 FE_PHN290_A_84
*241 FE_PHN289_A_80
*242 FE_PHN288_A_76
*243 FE_PHN287_A_75
*244 FE_PHN286_A_74
*245 FE_PHN285_A_63
*246 FE_PHN284_A_62
*247 FE_PHN283_A_61
*248 FE_PHN282_A_59
*249 FE_PHN281_B_123
*250 FE_PHN280_B_122
*251 FE_PHN279_B_72
*252 FE_PHN278_B_70
*253 FE_PHN277_B_69
*254 FE_PHN276_B_67
*255 FE_PHN275_B_56
*256 FE_PHN274_B_55
*257 FE_PHN273_A_78
*258 FE_PHN272_A_77
*259 FE_PHN271_B_68
*260 FE_PHN268_RST
*261 FE_PHN267_RST
*262 FE_PHN266_RST
*263 FE_PHN265_RST
*264 FE_PHN264_RST
*265 FE_OFN6_n386
*266 FE_OFN5_n386
*267 FE_OFN4_n386
*268 FE_OFN3_n386
*269 FE_OFN2_n386
*270 FE_OFN1_n386
*271 FE_OFN0_n386
*272 A[127]
*273 A[126]
*274 A[125]
*275 A[124]
*276 A[123]
*277 A[122]
*278 A[121]
*279 A[120]
*280 A[119]
*281 A[118]
*282 A[117]
*283 A[116]
*284 A[115]
*285 A[114]
*286 A[113]
*287 A[112]
*288 A[111]
*289 A[110]
*290 A[109]
*291 A[108]
*292 A[107]
*293 A[106]
*294 A[105]
*295 A[104]
*296 A[103]
*297 A[102]
*298 A[101]
*299 A[100]
*300 A[99]
*301 A[98]
*302 A[97]
*303 A[96]
*304 A[95]
*305 A[94]
*306 A[93]
*307 A[92]
*308 A[91]
*309 A[90]
*310 A[89]
*311 A[88]
*312 A[87]
*313 A[86]
*314 A[85]
*315 A[84]
*316 A[83]
*317 A[82]
*318 A[81]
*319 A[80]
*320 A[79]
*321 A[78]
*322 A[77]
*323 A[76]
*324 A[75]
*325 A[74]
*326 A[73]
*327 A[72]
*328 A[71]
*329 A[70]
*330 A[69]
*331 A[68]
*332 A[67]
*333 A[66]
*334 A[65]
*335 A[64]
*336 A[63]
*337 A[62]
*338 A[61]
*339 A[60]
*340 A[59]
*341 A[58]
*342 A[57]
*343 A[56]
*344 A[55]
*345 A[54]
*346 A[53]
*347 A[52]
*348 A[51]
*349 A[50]
*350 A[49]
*351 A[48]
*352 A[47]
*353 A[46]
*354 A[45]
*355 A[44]
*356 A[43]
*357 A[42]
*358 A[41]
*359 A[40]
*360 A[39]
*361 A[38]
*362 A[37]
*363 A[36]
*364 A[35]
*365 A[34]
*366 A[33]
*367 A[32]
*368 A[31]
*369 A[30]
*370 A[29]
*371 A[28]
*372 A[27]
*373 A[26]
*374 A[25]
*375 A[24]
*376 A[23]
*377 A[22]
*378 A[21]
*379 A[20]
*380 A[19]
*381 A[18]
*382 A[17]
*383 A[16]
*384 A[15]
*385 A[14]
*386 A[13]
*387 A[12]
*388 A[11]
*389 A[10]
*390 A[9]
*391 A[8]
*392 A[7]
*393 A[6]
*394 A[5]
*395 A[4]
*396 A[3]
*397 A[2]
*398 A[1]
*399 A[0]
*400 B[127]
*401 B[126]
*402 B[125]
*403 B[124]
*404 B[123]
*405 B[122]
*406 B[121]
*407 B[120]
*408 B[119]
*409 B[118]
*410 B[117]
*411 B[116]
*412 B[115]
*413 B[114]
*414 B[113]
*415 B[112]
*416 B[111]
*417 B[110]
*418 B[109]
*419 B[108]
*420 B[107]
*421 B[106]
*422 B[105]
*423 B[104]
*424 B[103]
*425 B[102]
*426 B[101]
*427 B[100]
*428 B[99]
*429 B[98]
*430 B[97]
*431 B[96]
*432 B[95]
*433 B[94]
*434 B[93]
*435 B[92]
*436 B[91]
*437 B[90]
*438 B[89]
*439 B[88]
*440 B[87]
*441 B[86]
*442 B[85]
*443 B[84]
*444 B[83]
*445 B[82]
*446 B[81]
*447 B[80]
*448 B[79]
*449 B[78]
*450 B[77]
*451 B[76]
*452 B[75]
*453 B[74]
*454 B[73]
*455 B[72]
*456 B[71]
*457 B[70]
*458 B[69]
*459 B[68]
*460 B[67]
*461 B[66]
*462 B[65]
*463 B[64]
*464 B[63]
*465 B[62]
*466 B[61]
*467 B[60]
*468 B[59]
*469 B[58]
*470 B[57]
*471 B[56]
*472 B[55]
*473 B[54]
*474 B[53]
*475 B[52]
*476 B[51]
*477 B[50]
*478 B[49]
*479 B[48]
*480 B[47]
*481 B[46]
*482 B[45]
*483 B[44]
*484 B[43]
*485 B[42]
*486 B[41]
*487 B[40]
*488 B[39]
*489 B[38]
*490 B[37]
*491 B[36]
*492 B[35]
*493 B[34]
*494 B[33]
*495 B[32]
*496 B[31]
*497 B[30]
*498 B[29]
*499 B[28]
*500 B[27]
*501 B[26]
*502 B[25]
*503 B[24]
*504 B[23]
*505 B[22]
*506 B[21]
*507 B[20]
*508 B[19]
*509 B[18]
*510 B[17]
*511 B[16]
*512 B[15]
*513 B[14]
*514 B[13]
*515 B[12]
*516 B[11]
*517 B[10]
*518 B[9]
*519 B[8]
*520 B[7]
*521 B[6]
*522 B[5]
*523 B[4]
*524 B[3]
*525 B[2]
*526 B[1]
*527 B[0]
*528 S[127]
*529 S[126]
*530 S[125]
*531 S[124]
*532 S[123]
*533 S[122]
*534 S[121]
*535 S[120]
*536 S[119]
*537 S[118]
*538 S[117]
*539 S[116]
*540 S[115]
*541 S[114]
*542 S[113]
*543 S[112]
*544 S[111]
*545 S[110]
*546 S[109]
*547 S[108]
*548 S[107]
*549 S[106]
*550 S[105]
*551 S[104]
*552 S[103]
*553 S[102]
*554 S[101]
*555 S[100]
*556 S[99]
*557 S[98]
*558 S[97]
*559 S[96]
*560 S[95]
*561 S[94]
*562 S[93]
*563 S[92]
*564 S[91]
*565 S[90]
*566 S[89]
*567 S[88]
*568 S[87]
*569 S[86]
*570 S[85]
*571 S[84]
*572 S[83]
*573 S[82]
*574 S[81]
*575 S[80]
*576 S[79]
*577 S[78]
*578 S[77]
*579 S[76]
*580 S[75]
*581 S[74]
*582 S[73]
*583 S[72]
*584 S[71]
*585 S[70]
*586 S[69]
*587 S[68]
*588 S[67]
*589 S[66]
*590 S[65]
*591 S[64]
*592 S[63]
*593 S[62]
*594 S[61]
*595 S[60]
*596 S[59]
*597 S[58]
*598 S[57]
*599 S[56]
*600 S[55]
*601 S[54]
*602 S[53]
*603 S[52]
*604 S[51]
*605 S[50]
*606 S[49]
*607 S[48]
*608 S[47]
*609 S[46]
*610 S[45]
*611 S[44]
*612 S[43]
*613 S[42]
*614 S[41]
*615 S[40]
*616 S[39]
*617 S[38]
*618 S[37]
*619 S[36]
*620 S[35]
*621 S[34]
*622 S[33]
*623 S[32]
*624 S[31]
*625 S[30]
*626 S[29]
*627 S[28]
*628 S[27]
*629 S[26]
*630 S[25]
*631 S[24]
*632 S[23]
*633 S[22]
*634 S[21]
*635 S[20]
*636 S[19]
*637 S[18]
*638 S[17]
*639 S[16]
*640 S[15]
*641 S[14]
*642 S[13]
*643 S[12]
*644 S[11]
*645 S[10]
*646 S[9]
*647 S[8]
*648 S[7]
*649 S[6]
*650 S[5]
*651 S[4]
*652 S[3]
*653 S[2]
*654 S[1]
*655 S[0]
*656 Ci
*657 CLK
*658 RST
*659 Co
*660 CITMP
*661 COTMP
*662 n386
*663 ATMP[127]
*664 ATMP[126]
*665 ATMP[125]
*666 ATMP[124]
*667 ATMP[123]
*668 ATMP[122]
*669 ATMP[121]
*670 ATMP[120]
*671 ATMP[119]
*672 ATMP[118]
*673 ATMP[117]
*674 ATMP[116]
*675 ATMP[115]
*676 ATMP[114]
*677 ATMP[113]
*678 ATMP[112]
*679 ATMP[111]
*680 ATMP[110]
*681 ATMP[109]
*682 ATMP[108]
*683 ATMP[107]
*684 ATMP[106]
*685 ATMP[105]
*686 ATMP[104]
*687 ATMP[103]
*688 ATMP[102]
*689 ATMP[101]
*690 ATMP[100]
*691 ATMP[99]
*692 ATMP[98]
*693 ATMP[97]
*694 ATMP[96]
*695 ATMP[95]
*696 ATMP[94]
*697 ATMP[93]
*698 ATMP[92]
*699 ATMP[91]
*700 ATMP[90]
*701 ATMP[89]
*702 ATMP[88]
*703 ATMP[87]
*704 ATMP[86]
*705 ATMP[85]
*706 ATMP[84]
*707 ATMP[83]
*708 ATMP[82]
*709 ATMP[81]
*710 ATMP[80]
*711 ATMP[79]
*712 ATMP[78]
*713 ATMP[77]
*714 ATMP[76]
*715 ATMP[75]
*716 ATMP[74]
*717 ATMP[73]
*718 ATMP[72]
*719 ATMP[71]
*720 ATMP[70]
*721 ATMP[69]
*722 ATMP[68]
*723 ATMP[67]
*724 ATMP[66]
*725 ATMP[65]
*726 ATMP[64]
*727 ATMP[63]
*728 ATMP[62]
*729 ATMP[61]
*730 ATMP[60]
*731 ATMP[59]
*732 ATMP[58]
*733 ATMP[57]
*734 ATMP[56]
*735 ATMP[55]
*736 ATMP[54]
*737 ATMP[53]
*738 ATMP[52]
*739 ATMP[51]
*740 ATMP[50]
*741 ATMP[49]
*742 ATMP[48]
*743 ATMP[47]
*744 ATMP[46]
*745 ATMP[45]
*746 ATMP[44]
*747 ATMP[43]
*748 ATMP[42]
*749 ATMP[41]
*750 ATMP[40]
*751 ATMP[39]
*752 ATMP[38]
*753 ATMP[37]
*754 ATMP[36]
*755 ATMP[35]
*756 ATMP[34]
*757 ATMP[33]
*758 ATMP[32]
*759 ATMP[31]
*760 ATMP[30]
*761 ATMP[29]
*762 ATMP[28]
*763 ATMP[27]
*764 ATMP[26]
*765 ATMP[25]
*766 ATMP[24]
*767 ATMP[23]
*768 ATMP[22]
*769 ATMP[21]
*770 ATMP[20]
*771 ATMP[19]
*772 ATMP[18]
*773 ATMP[17]
*774 ATMP[16]
*775 ATMP[15]
*776 ATMP[14]
*777 ATMP[13]
*778 ATMP[12]
*779 ATMP[11]
*780 ATMP[10]
*781 ATMP[9]
*782 ATMP[8]
*783 ATMP[7]
*784 ATMP[6]
*785 ATMP[5]
*786 ATMP[4]
*787 ATMP[3]
*788 ATMP[2]
*789 ATMP[1]
*790 ATMP[0]
*791 BTMP[127]
*792 BTMP[126]
*793 BTMP[125]
*794 BTMP[124]
*795 BTMP[123]
*796 BTMP[122]
*797 BTMP[121]
*798 BTMP[120]
*799 BTMP[119]
*800 BTMP[118]
*801 BTMP[117]
*802 BTMP[116]
*803 BTMP[115]
*804 BTMP[114]
*805 BTMP[113]
*806 BTMP[112]
*807 BTMP[111]
*808 BTMP[110]
*809 BTMP[109]
*810 BTMP[108]
*811 BTMP[107]
*812 BTMP[106]
*813 BTMP[105]
*814 BTMP[104]
*815 BTMP[103]
*816 BTMP[102]
*817 BTMP[101]
*818 BTMP[100]
*819 BTMP[99]
*820 BTMP[98]
*821 BTMP[97]
*822 BTMP[96]
*823 BTMP[95]
*824 BTMP[94]
*825 BTMP[93]
*826 BTMP[92]
*827 BTMP[91]
*828 BTMP[90]
*829 BTMP[89]
*830 BTMP[88]
*831 BTMP[87]
*832 BTMP[86]
*833 BTMP[85]
*834 BTMP[84]
*835 BTMP[83]
*836 BTMP[82]
*837 BTMP[81]
*838 BTMP[80]
*839 BTMP[79]
*840 BTMP[78]
*841 BTMP[77]
*842 BTMP[76]
*843 BTMP[75]
*844 BTMP[74]
*845 BTMP[73]
*846 BTMP[72]
*847 BTMP[71]
*848 BTMP[70]
*849 BTMP[69]
*850 BTMP[68]
*851 BTMP[67]
*852 BTMP[66]
*853 BTMP[65]
*854 BTMP[64]
*855 BTMP[63]
*856 BTMP[62]
*857 BTMP[61]
*858 BTMP[60]
*859 BTMP[59]
*860 BTMP[58]
*861 BTMP[57]
*862 BTMP[56]
*863 BTMP[55]
*864 BTMP[54]
*865 BTMP[53]
*866 BTMP[52]
*867 BTMP[51]
*868 BTMP[50]
*869 BTMP[49]
*870 BTMP[48]
*871 BTMP[47]
*872 BTMP[46]
*873 BTMP[45]
*874 BTMP[44]
*875 BTMP[43]
*876 BTMP[42]
*877 BTMP[41]
*878 BTMP[40]
*879 BTMP[39]
*880 BTMP[38]
*881 BTMP[37]
*882 BTMP[36]
*883 BTMP[35]
*884 BTMP[34]
*885 BTMP[33]
*886 BTMP[32]
*887 BTMP[31]
*888 BTMP[30]
*889 BTMP[29]
*890 BTMP[28]
*891 BTMP[27]
*892 BTMP[26]
*893 BTMP[25]
*894 BTMP[24]
*895 BTMP[23]
*896 BTMP[22]
*897 BTMP[21]
*898 BTMP[20]
*899 BTMP[19]
*900 BTMP[18]
*901 BTMP[17]
*902 BTMP[16]
*903 BTMP[15]
*904 BTMP[14]
*905 BTMP[13]
*906 BTMP[12]
*907 BTMP[11]
*908 BTMP[10]
*909 BTMP[9]
*910 BTMP[8]
*911 BTMP[7]
*912 BTMP[6]
*913 BTMP[5]
*914 BTMP[4]
*915 BTMP[3]
*916 BTMP[2]
*917 BTMP[1]
*918 BTMP[0]
*919 STMP[127]
*920 STMP[126]
*921 STMP[125]
*922 STMP[124]
*923 STMP[123]
*924 STMP[122]
*925 STMP[121]
*926 STMP[120]
*927 STMP[119]
*928 STMP[118]
*929 STMP[117]
*930 STMP[116]
*931 STMP[115]
*932 STMP[114]
*933 STMP[113]
*934 STMP[112]
*935 STMP[111]
*936 STMP[110]
*937 STMP[109]
*938 STMP[108]
*939 STMP[107]
*940 STMP[106]
*941 STMP[105]
*942 STMP[104]
*943 STMP[103]
*944 STMP[102]
*945 STMP[101]
*946 STMP[100]
*947 STMP[99]
*948 STMP[98]
*949 STMP[97]
*950 STMP[96]
*951 STMP[95]
*952 STMP[94]
*953 STMP[93]
*954 STMP[92]
*955 STMP[91]
*956 STMP[90]
*957 STMP[89]
*958 STMP[88]
*959 STMP[87]
*960 STMP[86]
*961 STMP[85]
*962 STMP[84]
*963 STMP[83]
*964 STMP[82]
*965 STMP[81]
*966 STMP[80]
*967 STMP[79]
*968 STMP[78]
*969 STMP[77]
*970 STMP[76]
*971 STMP[75]
*972 STMP[74]
*973 STMP[73]
*974 STMP[72]
*975 STMP[71]
*976 STMP[70]
*977 STMP[69]
*978 STMP[68]
*979 STMP[67]
*980 STMP[66]
*981 STMP[65]
*982 STMP[64]
*983 STMP[63]
*984 STMP[62]
*985 STMP[61]
*986 STMP[60]
*987 STMP[59]
*988 STMP[58]
*989 STMP[57]
*990 STMP[56]
*991 STMP[55]
*992 STMP[54]
*993 STMP[53]
*994 STMP[52]
*995 STMP[51]
*996 STMP[50]
*997 STMP[49]
*998 STMP[48]
*999 STMP[47]
*1000 STMP[46]
*1001 STMP[45]
*1002 STMP[44]
*1003 STMP[43]
*1004 STMP[42]
*1005 STMP[41]
*1006 STMP[40]
*1007 STMP[39]
*1008 STMP[38]
*1009 STMP[37]
*1010 STMP[36]
*1011 STMP[35]
*1012 STMP[34]
*1013 STMP[33]
*1014 STMP[32]
*1015 STMP[31]
*1016 STMP[30]
*1017 STMP[29]
*1018 STMP[28]
*1019 STMP[27]
*1020 STMP[26]
*1021 STMP[25]
*1022 STMP[24]
*1023 STMP[23]
*1024 STMP[22]
*1025 STMP[21]
*1026 STMP[20]
*1027 STMP[19]
*1028 STMP[18]
*1029 STMP[17]
*1030 STMP[16]
*1031 STMP[15]
*1032 STMP[14]
*1033 STMP[13]
*1034 STMP[12]
*1035 STMP[11]
*1036 STMP[10]
*1037 STMP[9]
*1038 STMP[8]
*1039 STMP[7]
*1040 STMP[6]
*1041 STMP[5]
*1042 STMP[4]
*1043 STMP[3]
*1044 STMP[2]
*1045 STMP[1]
*1046 STMP[0]
*1047 maprca/CTMP[127]
*1048 maprca/CTMP[126]
*1049 maprca/CTMP[125]
*1050 maprca/CTMP[124]
*1051 maprca/CTMP[123]
*1052 maprca/CTMP[122]
*1053 maprca/CTMP[121]
*1054 maprca/CTMP[120]
*1055 maprca/CTMP[119]
*1056 maprca/CTMP[118]
*1057 maprca/CTMP[117]
*1058 maprca/CTMP[116]
*1059 maprca/CTMP[115]
*1060 maprca/CTMP[114]
*1061 maprca/CTMP[113]
*1062 maprca/CTMP[112]
*1063 maprca/CTMP[111]
*1064 maprca/CTMP[110]
*1065 maprca/CTMP[109]
*1066 maprca/CTMP[108]
*1067 maprca/CTMP[107]
*1068 maprca/CTMP[106]
*1069 maprca/CTMP[105]
*1070 maprca/CTMP[104]
*1071 maprca/CTMP[103]
*1072 maprca/CTMP[102]
*1073 maprca/CTMP[101]
*1074 maprca/CTMP[100]
*1075 maprca/CTMP[99]
*1076 maprca/CTMP[98]
*1077 maprca/CTMP[97]
*1078 maprca/CTMP[96]
*1079 maprca/CTMP[95]
*1080 maprca/CTMP[94]
*1081 maprca/CTMP[93]
*1082 maprca/CTMP[92]
*1083 maprca/CTMP[91]
*1084 maprca/CTMP[90]
*1085 maprca/CTMP[89]
*1086 maprca/CTMP[88]
*1087 maprca/CTMP[87]
*1088 maprca/CTMP[86]
*1089 maprca/CTMP[85]
*1090 maprca/CTMP[84]
*1091 maprca/CTMP[83]
*1092 maprca/CTMP[82]
*1093 maprca/CTMP[81]
*1094 maprca/CTMP[80]
*1095 maprca/CTMP[79]
*1096 maprca/CTMP[78]
*1097 maprca/CTMP[77]
*1098 maprca/CTMP[76]
*1099 maprca/CTMP[75]
*1100 maprca/CTMP[74]
*1101 maprca/CTMP[73]
*1102 maprca/CTMP[72]
*1103 maprca/CTMP[71]
*1104 maprca/CTMP[70]
*1105 maprca/CTMP[69]
*1106 maprca/CTMP[68]
*1107 maprca/CTMP[67]
*1108 maprca/CTMP[66]
*1109 maprca/CTMP[65]
*1110 maprca/CTMP[64]
*1111 maprca/CTMP[63]
*1112 maprca/CTMP[62]
*1113 maprca/CTMP[61]
*1114 maprca/CTMP[60]
*1115 maprca/CTMP[59]
*1116 maprca/CTMP[58]
*1117 maprca/CTMP[57]
*1118 maprca/CTMP[56]
*1119 maprca/CTMP[55]
*1120 maprca/CTMP[54]
*1121 maprca/CTMP[53]
*1122 maprca/CTMP[52]
*1123 maprca/CTMP[51]
*1124 maprca/CTMP[50]
*1125 maprca/CTMP[49]
*1126 maprca/CTMP[48]
*1127 maprca/CTMP[47]
*1128 maprca/CTMP[46]
*1129 maprca/CTMP[45]
*1130 maprca/CTMP[44]
*1131 maprca/CTMP[43]
*1132 maprca/CTMP[42]
*1133 maprca/CTMP[41]
*1134 maprca/CTMP[40]
*1135 maprca/CTMP[39]
*1136 maprca/CTMP[38]
*1137 maprca/CTMP[37]
*1138 maprca/CTMP[36]
*1139 maprca/CTMP[35]
*1140 maprca/CTMP[34]
*1141 maprca/CTMP[33]
*1142 maprca/CTMP[32]
*1143 maprca/CTMP[31]
*1144 maprca/CTMP[30]
*1145 maprca/CTMP[29]
*1146 maprca/CTMP[28]
*1147 maprca/CTMP[27]
*1148 maprca/CTMP[26]
*1149 maprca/CTMP[25]
*1150 maprca/CTMP[24]
*1151 maprca/CTMP[23]
*1152 maprca/CTMP[22]
*1153 maprca/CTMP[21]
*1154 maprca/CTMP[20]
*1155 maprca/CTMP[19]
*1156 maprca/CTMP[18]
*1157 maprca/CTMP[17]
*1158 maprca/CTMP[16]
*1159 maprca/CTMP[15]
*1160 maprca/CTMP[14]
*1161 maprca/CTMP[13]
*1162 maprca/CTMP[12]
*1163 maprca/CTMP[11]
*1164 maprca/CTMP[10]
*1165 maprca/CTMP[9]
*1166 maprca/CTMP[8]
*1167 maprca/CTMP[7]
*1168 maprca/CTMP[6]
*1169 maprca/CTMP[5]
*1170 maprca/CTMP[4]
*1171 maprca/CTMP[3]
*1172 maprca/CTMP[2]
*1173 maprca/CTMP[1]
*1174 maprca/FAI_1/n1
*1175 maprca/FAI_1/n2
*1176 maprca/FAI_1/n3
*1177 maprca/FAI_2/n1
*1178 maprca/FAI_2/n2
*1179 maprca/FAI_2/n3
*1180 maprca/FAI_2/n4
*1181 maprca/FAI_3/n1
*1182 maprca/FAI_3/n2
*1183 maprca/FAI_3/n3
*1184 maprca/FAI_3/n4
*1185 maprca/FAI_4/n1
*1186 maprca/FAI_4/n2
*1187 maprca/FAI_4/n3
*1188 maprca/FAI_4/n4
*1189 maprca/FAI_5/n1
*1190 maprca/FAI_5/n2
*1191 maprca/FAI_5/n3
*1192 maprca/FAI_5/n4
*1193 maprca/FAI_6/n1
*1194 maprca/FAI_6/n2
*1195 maprca/FAI_6/n3
*1196 maprca/FAI_6/n4
*1197 maprca/FAI_7/n1
*1198 maprca/FAI_7/n2
*1199 maprca/FAI_7/n3
*1200 maprca/FAI_7/n4
*1201 maprca/FAI_8/n1
*1202 maprca/FAI_8/n2
*1203 maprca/FAI_8/n3
*1204 maprca/FAI_8/n4
*1205 maprca/FAI_9/n1
*1206 maprca/FAI_9/n2
*1207 maprca/FAI_9/n3
*1208 maprca/FAI_9/n4
*1209 maprca/FAI_10/n1
*1210 maprca/FAI_10/n2
*1211 maprca/FAI_10/n3
*1212 maprca/FAI_10/n4
*1213 maprca/FAI_11/n1
*1214 maprca/FAI_11/n2
*1215 maprca/FAI_11/n3
*1216 maprca/FAI_11/n4
*1217 maprca/FAI_12/n1
*1218 maprca/FAI_12/n2
*1219 maprca/FAI_12/n3
*1220 maprca/FAI_12/n4
*1221 maprca/FAI_13/n1
*1222 maprca/FAI_13/n2
*1223 maprca/FAI_13/n3
*1224 maprca/FAI_13/n4
*1225 maprca/FAI_14/n1
*1226 maprca/FAI_14/n2
*1227 maprca/FAI_14/n3
*1228 maprca/FAI_14/n4
*1229 maprca/FAI_15/n1
*1230 maprca/FAI_15/n2
*1231 maprca/FAI_15/n3
*1232 maprca/FAI_15/n4
*1233 maprca/FAI_16/n1
*1234 maprca/FAI_16/n2
*1235 maprca/FAI_16/n3
*1236 maprca/FAI_16/n4
*1237 maprca/FAI_17/n1
*1238 maprca/FAI_17/n2
*1239 maprca/FAI_17/n3
*1240 maprca/FAI_17/n4
*1241 maprca/FAI_18/n1
*1242 maprca/FAI_18/n2
*1243 maprca/FAI_18/n3
*1244 maprca/FAI_18/n4
*1245 maprca/FAI_19/n1
*1246 maprca/FAI_19/n2
*1247 maprca/FAI_19/n3
*1248 maprca/FAI_19/n4
*1249 maprca/FAI_20/n1
*1250 maprca/FAI_20/n2
*1251 maprca/FAI_20/n3
*1252 maprca/FAI_20/n4
*1253 maprca/FAI_21/n1
*1254 maprca/FAI_21/n2
*1255 maprca/FAI_21/n3
*1256 maprca/FAI_21/n4
*1257 maprca/FAI_22/n1
*1258 maprca/FAI_22/n2
*1259 maprca/FAI_22/n3
*1260 maprca/FAI_22/n4
*1261 maprca/FAI_23/n1
*1262 maprca/FAI_23/n2
*1263 maprca/FAI_23/n3
*1264 maprca/FAI_23/n4
*1265 maprca/FAI_24/n1
*1266 maprca/FAI_24/n2
*1267 maprca/FAI_24/n3
*1268 maprca/FAI_24/n4
*1269 maprca/FAI_25/n1
*1270 maprca/FAI_25/n2
*1271 maprca/FAI_25/n3
*1272 maprca/FAI_26/n1
*1273 maprca/FAI_26/n2
*1274 maprca/FAI_26/n3
*1275 maprca/FAI_27/n1
*1276 maprca/FAI_27/n2
*1277 maprca/FAI_27/n3
*1278 maprca/FAI_28/n1
*1279 maprca/FAI_28/n2
*1280 maprca/FAI_28/n3
*1281 maprca/FAI_29/n1
*1282 maprca/FAI_29/n2
*1283 maprca/FAI_29/n3
*1284 maprca/FAI_30/n1
*1285 maprca/FAI_30/n2
*1286 maprca/FAI_30/n3
*1287 maprca/FAI_31/n1
*1288 maprca/FAI_31/n2
*1289 maprca/FAI_31/n3
*1290 maprca/FAI_32/n1
*1291 maprca/FAI_32/n2
*1292 maprca/FAI_32/n3
*1293 maprca/FAI_33/n1
*1294 maprca/FAI_33/n2
*1295 maprca/FAI_33/n3
*1296 maprca/FAI_34/n1
*1297 maprca/FAI_34/n2
*1298 maprca/FAI_34/n3
*1299 maprca/FAI_35/n1
*1300 maprca/FAI_35/n2
*1301 maprca/FAI_35/n3
*1302 maprca/FAI_36/n1
*1303 maprca/FAI_36/n2
*1304 maprca/FAI_36/n3
*1305 maprca/FAI_37/n1
*1306 maprca/FAI_37/n2
*1307 maprca/FAI_37/n3
*1308 maprca/FAI_38/n1
*1309 maprca/FAI_38/n2
*1310 maprca/FAI_38/n3
*1311 maprca/FAI_39/n1
*1312 maprca/FAI_39/n2
*1313 maprca/FAI_39/n3
*1314 maprca/FAI_40/n1
*1315 maprca/FAI_40/n2
*1316 maprca/FAI_40/n3
*1317 maprca/FAI_41/n1
*1318 maprca/FAI_41/n2
*1319 maprca/FAI_41/n3
*1320 maprca/FAI_42/n1
*1321 maprca/FAI_42/n2
*1322 maprca/FAI_42/n3
*1323 maprca/FAI_43/n1
*1324 maprca/FAI_43/n2
*1325 maprca/FAI_43/n3
*1326 maprca/FAI_44/n1
*1327 maprca/FAI_44/n2
*1328 maprca/FAI_44/n3
*1329 maprca/FAI_45/n1
*1330 maprca/FAI_45/n2
*1331 maprca/FAI_45/n3
*1332 maprca/FAI_46/n1
*1333 maprca/FAI_46/n2
*1334 maprca/FAI_46/n3
*1335 maprca/FAI_47/n1
*1336 maprca/FAI_47/n2
*1337 maprca/FAI_47/n3
*1338 maprca/FAI_48/n1
*1339 maprca/FAI_48/n2
*1340 maprca/FAI_48/n3
*1341 maprca/FAI_49/n1
*1342 maprca/FAI_49/n2
*1343 maprca/FAI_49/n3
*1344 maprca/FAI_50/n1
*1345 maprca/FAI_50/n2
*1346 maprca/FAI_50/n3
*1347 maprca/FAI_51/n1
*1348 maprca/FAI_51/n2
*1349 maprca/FAI_51/n3
*1350 maprca/FAI_52/n1
*1351 maprca/FAI_52/n2
*1352 maprca/FAI_52/n3
*1353 maprca/FAI_53/n1
*1354 maprca/FAI_53/n2
*1355 maprca/FAI_53/n3
*1356 maprca/FAI_54/n1
*1357 maprca/FAI_54/n2
*1358 maprca/FAI_54/n3
*1359 maprca/FAI_55/n1
*1360 maprca/FAI_55/n2
*1361 maprca/FAI_55/n3
*1362 maprca/FAI_56/n1
*1363 maprca/FAI_56/n2
*1364 maprca/FAI_56/n3
*1365 maprca/FAI_57/n1
*1366 maprca/FAI_57/n2
*1367 maprca/FAI_57/n3
*1368 maprca/FAI_58/n1
*1369 maprca/FAI_58/n2
*1370 maprca/FAI_58/n3
*1371 maprca/FAI_59/n1
*1372 maprca/FAI_59/n2
*1373 maprca/FAI_59/n3
*1374 maprca/FAI_60/n1
*1375 maprca/FAI_60/n2
*1376 maprca/FAI_60/n3
*1377 maprca/FAI_61/n1
*1378 maprca/FAI_61/n2
*1379 maprca/FAI_61/n3
*1380 maprca/FAI_62/n1
*1381 maprca/FAI_62/n2
*1382 maprca/FAI_62/n3
*1383 maprca/FAI_63/n1
*1384 maprca/FAI_63/n2
*1385 maprca/FAI_63/n3
*1386 maprca/FAI_64/n1
*1387 maprca/FAI_64/n2
*1388 maprca/FAI_64/n3
*1389 maprca/FAI_65/n1
*1390 maprca/FAI_65/n2
*1391 maprca/FAI_65/n3
*1392 maprca/FAI_66/n1
*1393 maprca/FAI_66/n2
*1394 maprca/FAI_66/n3
*1395 maprca/FAI_67/n1
*1396 maprca/FAI_67/n2
*1397 maprca/FAI_67/n3
*1398 maprca/FAI_68/n1
*1399 maprca/FAI_68/n2
*1400 maprca/FAI_68/n3
*1401 maprca/FAI_69/n1
*1402 maprca/FAI_69/n2
*1403 maprca/FAI_69/n3
*1404 maprca/FAI_70/n1
*1405 maprca/FAI_70/n2
*1406 maprca/FAI_70/n3
*1407 maprca/FAI_71/n1
*1408 maprca/FAI_71/n2
*1409 maprca/FAI_71/n3
*1410 maprca/FAI_72/n1
*1411 maprca/FAI_72/n2
*1412 maprca/FAI_72/n3
*1413 maprca/FAI_73/n1
*1414 maprca/FAI_73/n2
*1415 maprca/FAI_73/n3
*1416 maprca/FAI_74/n1
*1417 maprca/FAI_74/n2
*1418 maprca/FAI_74/n3
*1419 maprca/FAI_75/n1
*1420 maprca/FAI_75/n2
*1421 maprca/FAI_75/n3
*1422 maprca/FAI_76/n1
*1423 maprca/FAI_76/n2
*1424 maprca/FAI_76/n3
*1425 maprca/FAI_77/n1
*1426 maprca/FAI_77/n2
*1427 maprca/FAI_77/n3
*1428 maprca/FAI_78/n1
*1429 maprca/FAI_78/n2
*1430 maprca/FAI_78/n3
*1431 maprca/FAI_79/n1
*1432 maprca/FAI_79/n2
*1433 maprca/FAI_79/n3
*1434 maprca/FAI_80/n1
*1435 maprca/FAI_80/n2
*1436 maprca/FAI_80/n3
*1437 maprca/FAI_81/n1
*1438 maprca/FAI_81/n2
*1439 maprca/FAI_81/n3
*1440 maprca/FAI_82/n1
*1441 maprca/FAI_82/n2
*1442 maprca/FAI_82/n3
*1443 maprca/FAI_83/n1
*1444 maprca/FAI_83/n2
*1445 maprca/FAI_83/n3
*1446 maprca/FAI_84/n1
*1447 maprca/FAI_84/n2
*1448 maprca/FAI_84/n3
*1449 maprca/FAI_85/n1
*1450 maprca/FAI_85/n2
*1451 maprca/FAI_85/n3
*1452 maprca/FAI_86/n1
*1453 maprca/FAI_86/n2
*1454 maprca/FAI_86/n3
*1455 maprca/FAI_87/n1
*1456 maprca/FAI_87/n2
*1457 maprca/FAI_87/n3
*1458 maprca/FAI_88/n1
*1459 maprca/FAI_88/n2
*1460 maprca/FAI_88/n3
*1461 maprca/FAI_89/n1
*1462 maprca/FAI_89/n2
*1463 maprca/FAI_89/n3
*1464 maprca/FAI_90/n1
*1465 maprca/FAI_90/n2
*1466 maprca/FAI_90/n3
*1467 maprca/FAI_91/n1
*1468 maprca/FAI_91/n2
*1469 maprca/FAI_91/n3
*1470 maprca/FAI_92/n1
*1471 maprca/FAI_92/n2
*1472 maprca/FAI_92/n3
*1473 maprca/FAI_93/n1
*1474 maprca/FAI_93/n2
*1475 maprca/FAI_93/n3
*1476 maprca/FAI_94/n1
*1477 maprca/FAI_94/n2
*1478 maprca/FAI_94/n3
*1479 maprca/FAI_95/n1
*1480 maprca/FAI_95/n2
*1481 maprca/FAI_95/n3
*1482 maprca/FAI_96/n1
*1483 maprca/FAI_96/n2
*1484 maprca/FAI_96/n3
*1485 maprca/FAI_97/n1
*1486 maprca/FAI_97/n2
*1487 maprca/FAI_97/n3
*1488 maprca/FAI_98/n1
*1489 maprca/FAI_98/n2
*1490 maprca/FAI_98/n3
*1491 maprca/FAI_99/n1
*1492 maprca/FAI_99/n2
*1493 maprca/FAI_99/n3
*1494 maprca/FAI_100/n1
*1495 maprca/FAI_100/n2
*1496 maprca/FAI_100/n3
*1497 maprca/FAI_101/n1
*1498 maprca/FAI_101/n2
*1499 maprca/FAI_101/n3
*1500 maprca/FAI_102/n1
*1501 maprca/FAI_102/n2
*1502 maprca/FAI_102/n3
*1503 maprca/FAI_103/n1
*1504 maprca/FAI_103/n2
*1505 maprca/FAI_103/n3
*1506 maprca/FAI_104/n1
*1507 maprca/FAI_104/n2
*1508 maprca/FAI_104/n3
*1509 maprca/FAI_105/n1
*1510 maprca/FAI_105/n2
*1511 maprca/FAI_105/n3
*1512 maprca/FAI_105/n4
*1513 maprca/FAI_106/n1
*1514 maprca/FAI_106/n2
*1515 maprca/FAI_106/n3
*1516 maprca/FAI_106/n4
*1517 maprca/FAI_107/n1
*1518 maprca/FAI_107/n2
*1519 maprca/FAI_107/n3
*1520 maprca/FAI_107/n4
*1521 maprca/FAI_108/n1
*1522 maprca/FAI_108/n2
*1523 maprca/FAI_108/n3
*1524 maprca/FAI_108/n4
*1525 maprca/FAI_109/n1
*1526 maprca/FAI_109/n2
*1527 maprca/FAI_109/n3
*1528 maprca/FAI_109/n4
*1529 maprca/FAI_110/n1
*1530 maprca/FAI_110/n2
*1531 maprca/FAI_110/n3
*1532 maprca/FAI_110/n4
*1533 maprca/FAI_111/n1
*1534 maprca/FAI_111/n2
*1535 maprca/FAI_111/n3
*1536 maprca/FAI_111/n4
*1537 maprca/FAI_112/n1
*1538 maprca/FAI_112/n2
*1539 maprca/FAI_112/n3
*1540 maprca/FAI_112/n4
*1541 maprca/FAI_113/n1
*1542 maprca/FAI_113/n2
*1543 maprca/FAI_113/n3
*1544 maprca/FAI_113/n4
*1545 maprca/FAI_114/n1
*1546 maprca/FAI_114/n2
*1547 maprca/FAI_114/n3
*1548 maprca/FAI_114/n4
*1549 maprca/FAI_115/n1
*1550 maprca/FAI_115/n2
*1551 maprca/FAI_115/n3
*1552 maprca/FAI_115/n4
*1553 maprca/FAI_116/n1
*1554 maprca/FAI_116/n2
*1555 maprca/FAI_116/n3
*1556 maprca/FAI_116/n4
*1557 maprca/FAI_117/n1
*1558 maprca/FAI_117/n2
*1559 maprca/FAI_117/n3
*1560 maprca/FAI_117/n4
*1561 maprca/FAI_118/n1
*1562 maprca/FAI_118/n2
*1563 maprca/FAI_118/n3
*1564 maprca/FAI_118/n4
*1565 maprca/FAI_119/n1
*1566 maprca/FAI_119/n2
*1567 maprca/FAI_119/n3
*1568 maprca/FAI_119/n4
*1569 maprca/FAI_120/n1
*1570 maprca/FAI_120/n2
*1571 maprca/FAI_120/n3
*1572 maprca/FAI_120/n4
*1573 maprca/FAI_121/n1
*1574 maprca/FAI_121/n2
*1575 maprca/FAI_121/n3
*1576 maprca/FAI_121/n4
*1577 maprca/FAI_122/n1
*1578 maprca/FAI_122/n2
*1579 maprca/FAI_122/n3
*1580 maprca/FAI_122/n4
*1581 maprca/FAI_123/n1
*1582 maprca/FAI_123/n2
*1583 maprca/FAI_123/n3
*1584 maprca/FAI_123/n4
*1585 maprca/FAI_124/n1
*1586 maprca/FAI_124/n2
*1587 maprca/FAI_124/n3
*1588 maprca/FAI_124/n4
*1589 maprca/FAI_125/n1
*1590 maprca/FAI_125/n2
*1591 maprca/FAI_125/n3
*1592 maprca/FAI_125/n4
*1593 maprca/FAI_126/n1
*1594 maprca/FAI_126/n2
*1595 maprca/FAI_126/n3
*1596 maprca/FAI_126/n4
*1597 maprca/FAI_127/n1
*1598 maprca/FAI_127/n2
*1599 maprca/FAI_127/n3
*1600 maprca/FAI_127/n4
*1601 maprca/FAI_128/n1
*1602 maprca/FAI_128/n2
*1603 maprca/FAI_128/n3
*1604 maprca/FAI_128/n4
*1605 FE_PHC529_RST
*1606 FE_PHC528_B_3
*1607 FE_PHC527_B_4
*1608 FE_PHC526_B_2
*1609 FE_PHC525_B_0
*1610 FE_PHC524_B_5
*1611 FE_PHC523_B_1
*1612 FE_PHC522_B_6
*1613 FE_PHC521_A_107
*1614 FE_PHC520_A_36
*1615 FE_PHC519_A_35
*1616 FE_PHC518_A_109
*1617 FE_PHC517_A_108
*1618 FE_PHC516_A_105
*1619 FE_PHC515_B_18
*1620 FE_PHC514_B_13
*1621 FE_PHC513_B_7
*1622 FE_PHC512_A_110
*1623 FE_PHC511_B_19
*1624 FE_PHC510_B_9
*1625 FE_PHC509_A_117
*1626 FE_PHC508_A_111
*1627 FE_PHC507_A_106
*1628 FE_PHC506_A_103
*1629 FE_PHC505_B_17
*1630 FE_PHC504_B_15
*1631 FE_PHC503_B_11
*1632 FE_PHC502_B_8
*1633 FE_PHC501_A_126
*1634 FE_PHC500_A_122
*1635 FE_PHC499_A_119
*1636 FE_PHC498_A_113
*1637 FE_PHC497_A_102
*1638 FE_PHC496_A_38
*1639 FE_PHC495_A_37
*1640 FE_PHC494_A_34
*1641 FE_PHC493_B_21
*1642 FE_PHC492_B_20
*1643 FE_PHC491_B_14
*1644 FE_PHC490_A_112
*1645 FE_PHC489_A_30
*1646 FE_PHC488_B_24
*1647 FE_PHC487_B_22
*1648 FE_PHC486_B_16
*1649 FE_PHC485_B_10
*1650 FE_PHC484_A_120
*1651 FE_PHC483_A_118
*1652 FE_PHC482_A_116
*1653 FE_PHC481_A_115
*1654 FE_PHC480_A_101
*1655 FE_PHC479_A_43
*1656 FE_PHC478_A_33
*1657 FE_PHC477_A_31
*1658 FE_PHC476_A_21
*1659 FE_PHC475_B_95
*1660 FE_PHC474_B_31
*1661 FE_PHC473_B_23
*1662 FE_PHC472_B_12
*1663 FE_PHC471_A_127
*1664 FE_PHC470_A_125
*1665 FE_PHC469_A_123
*1666 FE_PHC468_A_121
*1667 FE_PHC467_A_114
*1668 FE_PHC466_A_104
*1669 FE_PHC465_A_100
*1670 FE_PHC464_A_99
*1671 FE_PHC463_A_39
*1672 FE_PHC462_A_32
*1673 FE_PHC461_A_29
*1674 FE_PHC460_A_22
*1675 FE_PHC459_A_20
*1676 FE_PHC458_A_19
*1677 FE_PHC457_A_17
*1678 FE_PHC456_A_0
*1679 FE_PHC455_B_94
*1680 FE_PHC454_B_36
*1681 FE_PHC453_A_44
*1682 FE_PHC452_A_40
*1683 FE_PHC451_A_2